Program Version,EnergyPlus, Version 9.0.1-bb7ca4f0da, YMD=2024.08.21 15:44
! <Version>, Version ID
 Version, 9.0
! <Timesteps per Hour>, #TimeSteps, Minutes per TimeStep {minutes}
 Timesteps per Hour, 12,  5
! <System Convergence Limits>, Minimum System TimeStep {minutes}, Max HVAC Iterations, Minimum Plant Iterations, Maximum Plant Iterations
 System Convergence Limits, 1, 20, 2, 8
! <Simulation Control>, Do Zone Sizing, Do System Sizing, Do Plant Sizing, Do Design Days, Do Weather Simulation, Do HVAC Sizing Simulation
 Simulation Control, Yes, Yes, Yes, No, Yes, No
! <Output Reporting Tolerances>, Tolerance for Time Heating Setpoint Not Met, Tolerance for Zone Cooling Setpoint Not Met Time
 Output Reporting Tolerances, 0.556, 0.556, 
! <Site:GroundTemperature:BuildingSurface>,Jan{C},Feb{C},Mar{C},Apr{C},May{C},Jun{C},Jul{C},Aug{C},Sep{C},Oct{C},Nov{C},Dec{C}
 Site:GroundTemperature:BuildingSurface,  18.00,  18.00,  18.00,  18.00,  18.00,  18.00,  18.00,  18.00,  18.00,  18.00,  18.00,  18.00
! <Site:GroundTemperature:FCfactorMethod>,Jan{C},Feb{C},Mar{C},Apr{C},May{C},Jun{C},Jul{C},Aug{C},Sep{C},Oct{C},Nov{C},Dec{C}
 Site:GroundTemperature:FCfactorMethod,  13.70,   7.00,   2.10,   2.60,   4.30,   8.80,  13.90,  17.80,  23.20,  25.60,  24.10,  20.50
! <Site:GroundTemperature:Shallow>,Jan{C},Feb{C},Mar{C},Apr{C},May{C},Jun{C},Jul{C},Aug{C},Sep{C},Oct{C},Nov{C},Dec{C}
 Site:GroundTemperature:Shallow,  13.00,  13.00,  13.00,  13.00,  13.00,  13.00,  13.00,  13.00,  13.00,  13.00,  13.00,  13.00
! <Site:GroundTemperature:Deep>,Jan{C},Feb{C},Mar{C},Apr{C},May{C},Jun{C},Jul{C},Aug{C},Sep{C},Oct{C},Nov{C},Dec{C}
 Site:GroundTemperature:Deep,  16.00,  16.00,  16.00,  16.00,  16.00,  16.00,  16.00,  16.00,  16.00,  16.00,  16.00,  16.00
! <Site:GroundReflectance>,Jan{dimensionless},Feb{dimensionless},Mar{dimensionless},Apr{dimensionless},May{dimensionless},Jun{dimensionless},Jul{dimensionless},Aug{dimensionless},Sep{dimensionless},Oct{dimensionless},Nov{dimensionless},Dec{dimensionless}
 Site:GroundReflectance,  0.20,  0.20,  0.20,  0.20,  0.20,  0.20,  0.20,  0.20,  0.20,  0.20,  0.20,  0.20
! <Site:GroundReflectance:SnowModifier>, Normal, Daylighting {dimensionless}
 Site:GroundReflectance:SnowModifier,   1.000,   1.000
! <Site:GroundReflectance:Snow>,Jan{dimensionless},Feb{dimensionless},Mar{dimensionless},Apr{dimensionless},May{dimensionless},Jun{dimensionless},Jul{dimensionless},Aug{dimensionless},Sep{dimensionless},Oct{dimensionless},Nov{dimensionless},Dec{dimensionless}
 Site:GroundReflectance:Snow,  0.20,  0.20,  0.20,  0.20,  0.20,  0.20,  0.20,  0.20,  0.20,  0.20,  0.20,  0.20
! <Site:GroundReflectance:Snow:Daylighting>,Jan{dimensionless},Feb{dimensionless},Mar{dimensionless},Apr{dimensionless},May{dimensionless},Jun{dimensionless},Jul{dimensionless},Aug{dimensionless},Sep{dimensionless},Oct{dimensionless},Nov{dimensionless},Dec{dimensionless}
 Site:GroundReflectance:Snow:Daylighting,  0.20,  0.20,  0.20,  0.20,  0.20,  0.20,  0.20,  0.20,  0.20,  0.20,  0.20,  0.20
! <Environment:Weather Station>,Wind Sensor Height Above Ground {m},Wind Speed Profile Exponent {},Wind Speed Profile Boundary Layer Thickness {m},Air Temperature Sensor Height Above Ground {m},Wind Speed Modifier Coefficient-Internal,Temperature Modifier Coefficient-Internal
Environment:Weather Station,10.000,0.140,270.000,1.500,1.586,9.750E-003
! <Site:Location>, Location Name, Latitude {N+/S- Deg}, Longitude {E+/W- Deg},  Time Zone Number {GMT+/-}, Elevation {m},  Standard Pressure at Elevation {Pa}, Standard RhoAir at Elevation
Site:Location,Albuquerque Intl Sunport NM USA TMY3 WMO#=723650,35.04,-106.62,-7.00,1619.00,83328,0.9904
! <Site Water Mains Temperature Information>,Calculation Method{},Water Mains Temperature Schedule Name{},Annual Average Outdoor Air Temperature{C},Maximum Difference In Monthly Average Outdoor Air Temperatures{deltaC},Fixed Default Water Mains Temperature{C}
Site Water Mains Temperature Information,Correlation,NA,13.63,23.50,NA
! <Building Information>, Building Name,North Axis {deg},Terrain,  Loads Convergence Tolerance Value,Temperature Convergence Tolerance Value,  Solar Distribution,Maximum Number of Warmup Days,Minimum Number of Warmup Days
 Building Information,ApartmentHighRise,0.000,City,4.00000E-002,0.20000,FullInteriorAndExterior,25,6
! <Inside Convection Algorithm>, Algorithm {Simple | TARP | CeilingDiffuser | AdaptiveConvectionAlgorithm}
Inside Convection Algorithm,TARP
! <Outside Convection Algorithm>, Algorithm {SimpleCombined | TARP | MoWitt | DOE-2 | AdaptiveConvectionAlgorithm}
Outside Convection Algorithm,DOE-2
! <Sky Radiance Distribution>, Value {Anisotropic}
Sky Radiance Distribution,Anisotropic
! <Zone Air Solution Algorithm>, Value {ThirdOrderBackwardDifference | AnalyticalSolution | EulerMethod}
 Zone Air Solution Algorithm, ThirdOrderBackwardDifference
! <Zone Air Carbon Dioxide Balance Simulation>, Simulation {Yes/No}, Carbon Dioxide Concentration
 Zone Air Carbon Dioxide Balance Simulation, No,N/A
! <Zone Air Generic Contaminant Balance Simulation>, Simulation {Yes/No}, Generic Contaminant Concentration
 Zone Air Generic Contaminant Balance Simulation, No,N/A
! <Zone Air Mass Flow Balance Simulation>, Enforce Mass Balance, Adjust Zone Mixing, Adjust Zone Infiltration {AddInfiltration | AdjustInfiltration | None}, Infiltration Zones {MixingSourceZonesOnly | AllZones}
 Zone Air Mass Flow Balance Simulation, No,N/A,N/A,N/A
! <HVACSystemRootFindingAlgorithm>, Value {RegulaFalsi | Bisection | BisectionThenRegulaFalsi | RegulaFalsiThenBisection}
 HVACSystemRootFindingAlgorithm, RegulaFalsi
! <Environment:Site Atmospheric Variation>,Wind Speed Profile Exponent {},Wind Speed Profile Boundary Layer Thickness {m},Air Temperature Gradient Coefficient {K/m}
Environment:Site Atmospheric Variation,0.330,460.000,6.500000E-003
! <Surface Geometry>,Starting Corner,Vertex Input Direction,Coordinate System,Daylight Reference Point Coordinate System,Rectangular (Simple) Surface Coordinate System
 Surface Geometry,UpperLeftCorner,Counterclockwise,RelativeCoordinateSystem,RelativeCoordinateSystem,RelativeToZoneOrigin
! <Surface Heat Transfer Algorithm>, Value {CTF - ConductionTransferFunction | EMPD - MoisturePenetrationDepthConductionTransferFunction | CondFD - ConductionFiniteDifference | HAMT - CombinedHeatAndMoistureFiniteElement} - Description,Inside Surface Max Temperature Limit{C}, Surface Convection Coefficient Lower Limit {W/m2-K}, Surface Convection Coefficient Upper Limit {W/m2-K}
Surface Heat Transfer Algorithm, CTF - ConductionTransferFunction,200,0.10,1000.0
! <Shading Summary>, Number of Fixed Detached Shades, Number of Building Detached Shades, Number of Attached Shades
 Shading Summary,0,0,0
! <Zone Summary>, Number of Zones, Number of Zone Surfaces, Number of SubSurfaces
 Zone Summary,90,820,140
! <Zone Information>,Zone Name,North Axis {deg},Origin X-Coordinate {m},Origin Y-Coordinate {m},Origin Z-Coordinate {m},Centroid X-Coordinate {m},Centroid Y-Coordinate {m},Centroid Z-Coordinate {m},Type,Zone Multiplier,Zone List Multiplier,Minimum X {m},Maximum X {m},Minimum Y {m},Maximum Y {m},Minimum Z {m},Maximum Z {m},Ceiling Height {m},Volume {m3},Zone Inside Convection Algorithm {Simple-Detailed-CeilingDiffuser-TrombeWall},Zone Outside Convection Algorithm {Simple-Detailed-Tarp-MoWitt-DOE-2-BLAST}, Floor Area {m2},Exterior Gross Wall Area {m2},Exterior Net Wall Area {m2},Exterior Window Area {m2}, Number of Surfaces, Number of SubSurfaces, Number of Shading SubSurfaces,  Part of Total Building Area
 Zone Information, F2 CORRIDOR,0.0,0.00,7.62,3.05,23.16,8.46,4.57,1,1,1,0.00,46.33,7.62,9.30,3.05,6.10,3.05,236.69,TARP,DOE-2,77.66,10.22,7.99,2.23,12,2,0,Yes
 Zone Information, F2 N1 APARTMENT,0.0,11.58,9.30,3.05,17.37,13.11,4.57,1,1,1,11.58,23.16,9.30,16.92,3.05,6.10,3.05,268.96,TARP,DOE-2,88.25,35.30,24.71,10.59,6,1,0,Yes
 Zone Information, F2 N2 APARTMENT,0.0,23.16,9.30,3.05,28.95,13.11,4.57,1,1,1,23.16,34.75,9.30,16.92,3.05,6.10,3.05,268.97,TARP,DOE-2,88.25,35.30,24.71,10.59,6,1,0,Yes
 Zone Information, F2 NE APARTMENT,0.0,34.75,9.30,3.05,40.54,13.11,4.57,1,1,1,34.75,46.33,9.30,16.92,3.05,6.10,3.05,268.96,TARP,DOE-2,88.25,58.52,40.97,17.56,6,2,0,Yes
 Zone Information, F2 NW APARTMENT,0.0,0.00,9.30,3.05,5.79,13.11,4.57,1,1,1,0.00,11.58,9.30,16.92,3.05,6.10,3.05,268.96,TARP,DOE-2,88.25,58.52,40.97,17.56,6,2,0,Yes
 Zone Information, F2 S1 APARTMENT,0.0,11.58,0.00,3.05,17.37,3.81,4.57,1,1,1,11.58,23.16,0.00,7.62,3.05,6.10,3.05,268.96,TARP,DOE-2,88.25,35.30,24.71,10.59,6,1,0,Yes
 Zone Information, F2 S2 APARTMENT,0.0,23.16,0.00,3.05,28.95,3.81,4.57,1,1,1,23.16,34.75,0.00,7.62,3.05,6.10,3.05,268.97,TARP,DOE-2,88.25,35.30,24.71,10.59,6,1,0,Yes
 Zone Information, F2 SE APARTMENT,0.0,34.75,0.00,3.05,40.54,3.81,4.57,1,1,1,34.75,46.33,0.00,7.62,3.05,6.10,3.05,268.96,TARP,DOE-2,88.25,58.52,40.97,17.56,6,2,0,Yes
 Zone Information, F2 SW APARTMENT,0.0,0.00,0.00,3.05,5.79,3.81,4.57,1,1,1,0.00,11.58,0.00,7.62,3.05,6.10,3.05,268.96,TARP,DOE-2,88.25,58.52,40.97,17.56,6,2,0,Yes
 Zone Information, F3 CORRIDOR,0.0,0.00,7.62,6.10,23.16,8.46,7.62,1,1,1,0.00,46.33,7.62,9.30,6.10,9.14,3.05,236.69,TARP,DOE-2,77.66,10.22,7.99,2.23,12,2,0,Yes
 Zone Information, F3 N1 APARTMENT,0.0,11.58,9.30,6.10,17.37,13.11,7.62,1,1,1,11.58,23.16,9.30,16.92,6.10,9.14,3.05,268.96,TARP,DOE-2,88.25,35.30,24.71,10.59,6,1,0,Yes
 Zone Information, F3 N2 APARTMENT,0.0,23.16,9.30,6.10,28.95,13.11,7.62,1,1,1,23.16,34.75,9.30,16.92,6.10,9.14,3.05,268.97,TARP,DOE-2,88.25,35.30,24.71,10.59,6,1,0,Yes
 Zone Information, F3 NE APARTMENT,0.0,34.75,9.30,6.10,40.54,13.11,7.62,1,1,1,34.75,46.33,9.30,16.92,6.10,9.14,3.05,268.96,TARP,DOE-2,88.25,58.52,40.97,17.56,6,2,0,Yes
 Zone Information, F3 NW APARTMENT,0.0,0.00,9.30,6.10,5.79,13.11,7.62,1,1,1,0.00,11.58,9.30,16.92,6.10,9.14,3.05,268.96,TARP,DOE-2,88.25,58.52,40.97,17.56,6,2,0,Yes
 Zone Information, F3 S1 APARTMENT,0.0,11.58,0.00,6.10,17.37,3.81,7.62,1,1,1,11.58,23.16,0.00,7.62,6.10,9.14,3.05,268.96,TARP,DOE-2,88.25,35.30,24.71,10.59,6,1,0,Yes
 Zone Information, F3 S2 APARTMENT,0.0,23.16,0.00,6.10,28.95,3.81,7.62,1,1,1,23.16,34.75,0.00,7.62,6.10,9.14,3.05,268.97,TARP,DOE-2,88.25,35.30,24.71,10.59,6,1,0,Yes
 Zone Information, F3 SE APARTMENT,0.0,34.75,0.00,6.10,40.54,3.81,7.62,1,1,1,34.75,46.33,0.00,7.62,6.10,9.14,3.05,268.96,TARP,DOE-2,88.25,58.52,40.97,17.56,6,2,0,Yes
 Zone Information, F3 SW APARTMENT,0.0,0.00,0.00,6.10,5.79,3.81,7.62,1,1,1,0.00,11.58,0.00,7.62,6.10,9.14,3.05,268.96,TARP,DOE-2,88.25,58.52,40.97,17.56,6,2,0,Yes
 Zone Information, F4 CORRIDOR,0.0,0.00,7.62,9.14,23.16,8.46,10.67,1,1,1,0.00,46.33,7.62,9.30,9.14,12.19,3.05,236.69,TARP,DOE-2,77.66,10.22,7.99,2.23,12,2,0,Yes
 Zone Information, F4 N1 APARTMENT,0.0,11.58,9.30,9.14,17.37,13.11,10.67,1,1,1,11.58,23.16,9.30,16.92,9.14,12.19,3.05,268.96,TARP,DOE-2,88.25,35.30,24.71,10.59,6,1,0,Yes
 Zone Information, F4 N2 APARTMENT,0.0,23.16,9.30,9.14,28.95,13.11,10.67,1,1,1,23.16,34.75,9.30,16.92,9.14,12.19,3.05,268.97,TARP,DOE-2,88.25,35.30,24.71,10.59,6,1,0,Yes
 Zone Information, F4 NE APARTMENT,0.0,34.75,9.30,9.14,40.54,13.11,10.67,1,1,1,34.75,46.33,9.30,16.92,9.14,12.19,3.05,268.96,TARP,DOE-2,88.25,58.52,40.97,17.56,6,2,0,Yes
 Zone Information, F4 NW APARTMENT,0.0,0.00,9.30,9.14,5.79,13.11,10.67,1,1,1,0.00,11.58,9.30,16.92,9.14,12.19,3.05,268.96,TARP,DOE-2,88.25,58.52,40.97,17.56,6,2,0,Yes
 Zone Information, F4 S1 APARTMENT,0.0,11.58,0.00,9.14,17.37,3.81,10.67,1,1,1,11.58,23.16,0.00,7.62,9.14,12.19,3.05,268.96,TARP,DOE-2,88.25,35.30,24.71,10.59,6,1,0,Yes
 Zone Information, F4 S2 APARTMENT,0.0,23.16,0.00,9.14,28.95,3.81,10.67,1,1,1,23.16,34.75,0.00,7.62,9.14,12.19,3.05,268.97,TARP,DOE-2,88.25,35.30,24.71,10.59,6,1,0,Yes
 Zone Information, F4 SE APARTMENT,0.0,34.75,0.00,9.14,40.54,3.81,10.67,1,1,1,34.75,46.33,0.00,7.62,9.14,12.19,3.05,268.96,TARP,DOE-2,88.25,58.52,40.97,17.56,6,2,0,Yes
 Zone Information, F4 SW APARTMENT,0.0,0.00,0.00,9.14,5.79,3.81,10.67,1,1,1,0.00,11.58,0.00,7.62,9.14,12.19,3.05,268.96,TARP,DOE-2,88.25,58.52,40.97,17.56,6,2,0,Yes
 Zone Information, F6 CORRIDOR,0.0,0.00,7.62,15.24,23.16,8.46,16.76,1,1,1,0.00,46.33,7.62,9.30,15.24,18.29,3.05,236.69,TARP,DOE-2,77.66,10.22,7.99,2.23,12,2,0,Yes
 Zone Information, F6 N1 APARTMENT,0.0,11.58,9.30,15.24,17.37,13.11,16.76,1,1,1,11.58,23.16,9.30,16.92,15.24,18.29,3.05,268.96,TARP,DOE-2,88.25,35.30,24.71,10.59,6,1,0,Yes
 Zone Information, F6 N2 APARTMENT,0.0,23.16,9.30,15.24,28.95,13.11,16.76,1,1,1,23.16,34.75,9.30,16.92,15.24,18.29,3.05,268.97,TARP,DOE-2,88.25,35.30,24.71,10.59,6,1,0,Yes
 Zone Information, F6 NE APARTMENT,0.0,34.75,9.30,15.24,40.54,13.11,16.76,1,1,1,34.75,46.33,9.30,16.92,15.24,18.29,3.05,268.96,TARP,DOE-2,88.25,58.52,40.97,17.56,6,2,0,Yes
 Zone Information, F6 NW APARTMENT,0.0,0.00,9.30,15.24,5.79,13.11,16.76,1,1,1,0.00,11.58,9.30,16.92,15.24,18.29,3.05,268.96,TARP,DOE-2,88.25,58.52,40.97,17.56,6,2,0,Yes
 Zone Information, F6 S1 APARTMENT,0.0,11.58,0.00,15.24,17.37,3.81,16.76,1,1,1,11.58,23.16,0.00,7.62,15.24,18.29,3.05,268.96,TARP,DOE-2,88.25,35.30,24.71,10.59,6,1,0,Yes
 Zone Information, F6 S2 APARTMENT,0.0,23.16,0.00,15.24,28.95,3.81,16.76,1,1,1,23.16,34.75,0.00,7.62,15.24,18.29,3.05,268.97,TARP,DOE-2,88.25,35.30,24.71,10.59,6,1,0,Yes
 Zone Information, F6 SE APARTMENT,0.0,34.75,0.00,15.24,40.54,3.81,16.76,1,1,1,34.75,46.33,0.00,7.62,15.24,18.29,3.05,268.96,TARP,DOE-2,88.25,58.52,40.97,17.56,6,2,0,Yes
 Zone Information, F6 SW APARTMENT,0.0,0.00,0.00,15.24,5.79,3.81,16.76,1,1,1,0.00,11.58,0.00,7.62,15.24,18.29,3.05,268.96,TARP,DOE-2,88.25,58.52,40.97,17.56,6,2,0,Yes
 Zone Information, F7 CORRIDOR,0.0,0.00,7.62,18.29,23.16,8.46,19.81,1,1,1,0.00,46.33,7.62,9.30,18.29,21.33,3.05,236.69,TARP,DOE-2,77.66,10.22,7.99,2.23,12,2,0,Yes
 Zone Information, F7 N1 APARTMENT,0.0,11.58,9.30,18.29,17.37,13.11,19.81,1,1,1,11.58,23.16,9.30,16.92,18.29,21.33,3.05,268.96,TARP,DOE-2,88.25,35.30,24.71,10.59,6,1,0,Yes
 Zone Information, F7 N2 APARTMENT,0.0,23.16,9.30,18.29,28.95,13.11,19.81,1,1,1,23.16,34.75,9.30,16.92,18.29,21.33,3.05,268.97,TARP,DOE-2,88.25,35.30,24.71,10.59,6,1,0,Yes
 Zone Information, F7 NE APARTMENT,0.0,34.75,9.30,18.29,40.54,13.11,19.81,1,1,1,34.75,46.33,9.30,16.92,18.29,21.33,3.05,268.96,TARP,DOE-2,88.25,58.52,40.97,17.56,6,2,0,Yes
 Zone Information, F7 NW APARTMENT,0.0,0.00,9.30,18.29,5.79,13.11,19.81,1,1,1,0.00,11.58,9.30,16.92,18.29,21.33,3.05,268.96,TARP,DOE-2,88.25,58.52,40.97,17.56,6,2,0,Yes
 Zone Information, F7 S1 APARTMENT,0.0,11.58,0.00,18.29,17.37,3.81,19.81,1,1,1,11.58,23.16,0.00,7.62,18.29,21.33,3.05,268.96,TARP,DOE-2,88.25,35.30,24.71,10.59,6,1,0,Yes
 Zone Information, F7 S2 APARTMENT,0.0,23.16,0.00,18.29,28.95,3.81,19.81,1,1,1,23.16,34.75,0.00,7.62,18.29,21.33,3.05,268.97,TARP,DOE-2,88.25,35.30,24.71,10.59,6,1,0,Yes
 Zone Information, F7 SE APARTMENT,0.0,34.75,0.00,18.29,40.54,3.81,19.81,1,1,1,34.75,46.33,0.00,7.62,18.29,21.33,3.05,268.96,TARP,DOE-2,88.25,58.52,40.97,17.56,6,2,0,Yes
 Zone Information, F7 SW APARTMENT,0.0,0.00,0.00,18.29,5.79,3.81,19.81,1,1,1,0.00,11.58,0.00,7.62,18.29,21.33,3.05,268.96,TARP,DOE-2,88.25,58.52,40.97,17.56,6,2,0,Yes
 Zone Information, F8 CORRIDOR,0.0,0.00,7.62,21.33,23.16,8.46,22.86,1,1,1,0.00,46.33,7.62,9.30,21.33,24.38,3.05,236.69,TARP,DOE-2,77.66,10.22,7.99,2.23,12,2,0,Yes
 Zone Information, F8 N1 APARTMENT,0.0,11.58,9.30,21.33,17.37,13.11,22.86,1,1,1,11.58,23.16,9.30,16.92,21.33,24.38,3.05,268.96,TARP,DOE-2,88.25,35.30,24.71,10.59,6,1,0,Yes
 Zone Information, F8 N2 APARTMENT,0.0,23.16,9.30,21.33,28.95,13.11,22.86,1,1,1,23.16,34.75,9.30,16.92,21.33,24.38,3.05,268.97,TARP,DOE-2,88.25,35.30,24.71,10.59,6,1,0,Yes
 Zone Information, F8 NE APARTMENT,0.0,34.75,9.30,21.33,40.54,13.11,22.86,1,1,1,34.75,46.33,9.30,16.92,21.33,24.38,3.05,268.96,TARP,DOE-2,88.25,58.52,40.97,17.56,6,2,0,Yes
 Zone Information, F8 NW APARTMENT,0.0,0.00,9.30,21.33,5.79,13.11,22.86,1,1,1,0.00,11.58,9.30,16.92,21.33,24.38,3.05,268.96,TARP,DOE-2,88.25,58.52,40.97,17.56,6,2,0,Yes
 Zone Information, F8 S1 APARTMENT,0.0,11.58,0.00,21.33,17.37,3.81,22.86,1,1,1,11.58,23.16,0.00,7.62,21.33,24.38,3.05,268.96,TARP,DOE-2,88.25,35.30,24.71,10.59,6,1,0,Yes
 Zone Information, F8 S2 APARTMENT,0.0,23.16,0.00,21.33,28.95,3.81,22.86,1,1,1,23.16,34.75,0.00,7.62,21.33,24.38,3.05,268.97,TARP,DOE-2,88.25,35.30,24.71,10.59,6,1,0,Yes
 Zone Information, F8 SE APARTMENT,0.0,34.75,0.00,21.33,40.54,3.81,22.86,1,1,1,34.75,46.33,0.00,7.62,21.33,24.38,3.05,268.96,TARP,DOE-2,88.25,58.52,40.97,17.56,6,2,0,Yes
 Zone Information, F8 SW APARTMENT,0.0,0.00,0.00,21.33,5.79,3.81,22.86,1,1,1,0.00,11.58,0.00,7.62,21.33,24.38,3.05,268.96,TARP,DOE-2,88.25,58.52,40.97,17.56,6,2,0,Yes
 Zone Information, F9 CORRIDOR,0.0,0.00,7.62,24.38,23.16,8.46,25.91,1,1,1,0.00,46.33,7.62,9.30,24.38,27.43,3.05,236.69,TARP,DOE-2,77.66,10.22,7.99,2.23,12,2,0,Yes
 Zone Information, F9 N1 APARTMENT,0.0,11.58,9.30,24.38,17.37,13.11,25.91,1,1,1,11.58,23.16,9.30,16.92,24.38,27.43,3.05,268.96,TARP,DOE-2,88.25,35.30,24.71,10.59,6,1,0,Yes
 Zone Information, F9 N2 APARTMENT,0.0,23.16,9.30,24.38,28.95,13.11,25.91,1,1,1,23.16,34.75,9.30,16.92,24.38,27.43,3.05,268.97,TARP,DOE-2,88.25,35.30,24.71,10.59,6,1,0,Yes
 Zone Information, F9 NE APARTMENT,0.0,34.75,9.30,24.38,40.54,13.11,25.91,1,1,1,34.75,46.33,9.30,16.92,24.38,27.43,3.05,268.96,TARP,DOE-2,88.25,58.52,40.97,17.56,6,2,0,Yes
 Zone Information, F9 NW APARTMENT,0.0,0.00,9.30,24.38,5.79,13.11,25.91,1,1,1,0.00,11.58,9.30,16.92,24.38,27.43,3.05,268.96,TARP,DOE-2,88.25,58.52,40.97,17.56,6,2,0,Yes
 Zone Information, F9 S1 APARTMENT,0.0,11.58,0.00,24.38,17.37,3.81,25.91,1,1,1,11.58,23.16,0.00,7.62,24.38,27.43,3.05,268.96,TARP,DOE-2,88.25,35.30,24.71,10.59,6,1,0,Yes
 Zone Information, F9 S2 APARTMENT,0.0,23.16,0.00,24.38,28.95,3.81,25.91,1,1,1,23.16,34.75,0.00,7.62,24.38,27.43,3.05,268.97,TARP,DOE-2,88.25,35.30,24.71,10.59,6,1,0,Yes
 Zone Information, F9 SE APARTMENT,0.0,34.75,0.00,24.38,40.54,3.81,25.91,1,1,1,34.75,46.33,0.00,7.62,24.38,27.43,3.05,268.96,TARP,DOE-2,88.25,58.52,40.97,17.56,6,2,0,Yes
 Zone Information, F9 SW APARTMENT,0.0,0.00,0.00,24.38,5.79,3.81,25.91,1,1,1,0.00,11.58,0.00,7.62,24.38,27.43,3.05,268.96,TARP,DOE-2,88.25,58.52,40.97,17.56,6,2,0,Yes
 Zone Information, G CORRIDOR,0.0,0.00,7.62,0.00,23.16,8.46,1.52,1,1,1,0.00,46.33,7.62,9.30,0.00,3.05,3.05,236.69,TARP,DOE-2,77.66,10.22,5.74,4.47,12,2,0,Yes
 Zone Information, G N1 APARTMENT,0.0,11.58,9.30,0.00,17.37,13.11,1.52,1,1,1,11.58,23.16,9.30,16.92,0.00,3.05,3.05,268.96,TARP,DOE-2,88.25,35.30,24.71,10.59,6,1,0,Yes
 Zone Information, G N2 APARTMENT,0.0,23.16,9.30,0.00,28.95,13.11,1.52,1,1,1,23.16,34.75,9.30,16.92,0.00,3.05,3.05,268.97,TARP,DOE-2,88.25,35.30,24.71,10.59,6,1,0,Yes
 Zone Information, G NE APARTMENT,0.0,34.75,9.30,0.00,40.54,13.11,1.52,1,1,1,34.75,46.33,9.30,16.92,0.00,3.05,3.05,268.96,TARP,DOE-2,88.25,58.52,40.97,17.56,6,2,0,Yes
 Zone Information, G NW APARTMENT,0.0,0.00,9.30,0.00,5.79,13.11,1.52,1,1,1,0.00,11.58,9.30,16.92,0.00,3.05,3.05,268.96,TARP,DOE-2,88.25,58.52,40.97,17.56,6,2,0,Yes
 Zone Information, G S1 APARTMENT,0.0,11.58,0.00,0.00,17.37,3.81,1.52,1,1,1,11.58,23.16,0.00,7.62,0.00,3.05,3.05,268.96,TARP,DOE-2,88.25,35.30,24.71,10.59,6,1,0,Yes
 Zone Information, G S2 APARTMENT,0.0,23.16,0.00,0.00,28.95,3.81,1.52,1,1,1,23.16,34.75,0.00,7.62,0.00,3.05,3.05,268.97,TARP,DOE-2,88.25,35.30,24.71,10.59,6,1,0,Yes
 Zone Information, G SW APARTMENT,0.0,0.00,0.00,0.00,5.79,3.81,1.52,1,1,1,0.00,11.58,0.00,7.62,0.00,3.05,3.05,268.96,TARP,DOE-2,88.25,58.52,40.97,17.56,6,2,0,Yes
 Zone Information, M CORRIDOR,0.0,0.00,7.62,12.19,23.16,8.46,13.72,1,1,1,0.00,46.33,7.62,9.30,12.19,15.24,3.05,236.69,TARP,DOE-2,77.66,10.22,7.99,2.23,12,2,0,Yes
 Zone Information, M N1 APARTMENT,0.0,11.58,9.30,12.19,17.37,13.11,13.72,1,1,1,11.58,23.16,9.30,16.92,12.19,15.24,3.05,268.96,TARP,DOE-2,88.25,35.30,24.71,10.59,6,1,0,Yes
 Zone Information, M N2 APARTMENT,0.0,23.16,9.30,12.19,28.95,13.11,13.72,1,1,1,23.16,34.75,9.30,16.92,12.19,15.24,3.05,268.97,TARP,DOE-2,88.25,35.30,24.71,10.59,6,1,0,Yes
 Zone Information, M NE APARTMENT,0.0,34.75,9.30,12.19,40.54,13.11,13.72,1,1,1,34.75,46.33,9.30,16.92,12.19,15.24,3.05,268.96,TARP,DOE-2,88.25,58.52,40.97,17.56,6,2,0,Yes
 Zone Information, M NW APARTMENT,0.0,0.00,9.30,12.19,5.79,13.11,13.72,1,1,1,0.00,11.58,9.30,16.92,12.19,15.24,3.05,268.96,TARP,DOE-2,88.25,58.52,40.97,17.56,6,2,0,Yes
 Zone Information, M S1 APARTMENT,0.0,11.58,0.00,12.19,17.37,3.81,13.72,1,1,1,11.58,23.16,0.00,7.62,12.19,15.24,3.05,268.96,TARP,DOE-2,88.25,35.30,24.71,10.59,6,1,0,Yes
 Zone Information, M S2 APARTMENT,0.0,23.16,0.00,12.19,28.95,3.81,13.72,1,1,1,23.16,34.75,0.00,7.62,12.19,15.24,3.05,268.97,TARP,DOE-2,88.25,35.30,24.71,10.59,6,1,0,Yes
 Zone Information, M SE APARTMENT,0.0,34.75,0.00,12.19,40.54,3.81,13.72,1,1,1,34.75,46.33,0.00,7.62,12.19,15.24,3.05,268.96,TARP,DOE-2,88.25,58.52,40.97,17.56,6,2,0,Yes
 Zone Information, M SW APARTMENT,0.0,0.00,0.00,12.19,5.79,3.81,13.72,1,1,1,0.00,11.58,0.00,7.62,12.19,15.24,3.05,268.96,TARP,DOE-2,88.25,58.52,40.97,17.56,6,2,0,Yes
 Zone Information, OFFICE,0.0,34.75,0.00,0.00,40.54,3.81,1.52,1,1,1,34.75,46.33,0.00,7.62,0.00,3.05,3.05,268.96,TARP,DOE-2,88.25,58.52,40.97,17.56,6,2,0,Yes
 Zone Information, T CORRIDOR,0.0,0.00,7.62,27.43,23.16,8.46,28.95,1,1,1,0.00,46.33,7.62,9.30,27.43,30.48,3.05,236.69,TARP,DOE-2,77.66,10.22,7.99,2.23,12,2,0,Yes
 Zone Information, T N1 APARTMENT,0.0,11.58,9.30,27.43,17.37,13.11,28.95,1,1,1,11.58,23.16,9.30,16.92,27.43,30.48,3.05,268.96,TARP,DOE-2,88.25,35.30,24.71,10.59,6,1,0,Yes
 Zone Information, T N2 APARTMENT,0.0,23.16,9.30,27.43,28.95,13.11,28.95,1,1,1,23.16,34.75,9.30,16.92,27.43,30.48,3.05,268.97,TARP,DOE-2,88.25,35.30,24.71,10.59,6,1,0,Yes
 Zone Information, T NE APARTMENT,0.0,34.75,9.30,27.43,40.54,13.11,28.95,1,1,1,34.75,46.33,9.30,16.92,27.43,30.48,3.05,268.96,TARP,DOE-2,88.25,58.52,40.97,17.56,6,2,0,Yes
 Zone Information, T NW APARTMENT,0.0,0.00,9.30,27.43,5.79,13.11,28.95,1,1,1,0.00,11.58,9.30,16.92,27.43,30.48,3.05,268.96,TARP,DOE-2,88.25,58.52,40.97,17.56,6,2,0,Yes
 Zone Information, T S1 APARTMENT,0.0,11.58,0.00,27.43,17.37,3.81,28.95,1,1,1,11.58,23.16,0.00,7.62,27.43,30.48,3.05,268.96,TARP,DOE-2,88.25,35.30,24.71,10.59,6,1,0,Yes
 Zone Information, T S2 APARTMENT,0.0,23.16,0.00,27.43,28.95,3.81,28.95,1,1,1,23.16,34.75,0.00,7.62,27.43,30.48,3.05,268.97,TARP,DOE-2,88.25,35.30,24.71,10.59,6,1,0,Yes
 Zone Information, T SE APARTMENT,0.0,34.75,0.00,27.43,40.54,3.81,28.95,1,1,1,34.75,46.33,0.00,7.62,27.43,30.48,3.05,268.96,TARP,DOE-2,88.25,58.52,40.97,17.56,6,2,0,Yes
 Zone Information, T SW APARTMENT,0.0,0.00,0.00,27.43,5.79,3.81,28.95,1,1,1,0.00,11.58,0.00,7.62,27.43,30.48,3.05,268.96,TARP,DOE-2,88.25,58.52,40.97,17.56,6,2,0,Yes
! <Zone Internal Gains Nominal>,Zone Name, Floor Area {m2},# Occupants,Area per Occupant {m2/person},Occupant per Area {person/m2},Interior Lighting {W/m2},Electric Load {W/m2},Gas Load {W/m2},Other Load {W/m2},Hot Water Eq {W/m2},Steam Equipment {W/m2},Sum Loads per Area {W/m2},Outdoor Controlled Baseboard Heat
 Zone Internal Gains Nominal, F2 CORRIDOR,77.66,0.0,N/A,0.000,8.525,0.000,0.000,0.000,0.000,0.000,8.525,No
 Zone Internal Gains Nominal, F2 N1 APARTMENT,88.25,2.5,35.299,2.833E-002,14.424,6.670,0.000,0.000,0.000,0.000,21.094,No
 Zone Internal Gains Nominal, F2 N2 APARTMENT,88.25,2.5,35.299,2.833E-002,14.424,6.670,0.000,0.000,0.000,0.000,21.094,No
 Zone Internal Gains Nominal, F2 NE APARTMENT,88.25,2.5,35.299,2.833E-002,14.424,6.670,0.000,0.000,0.000,0.000,21.094,No
 Zone Internal Gains Nominal, F2 NW APARTMENT,88.25,2.5,35.299,2.833E-002,14.424,6.670,0.000,0.000,0.000,0.000,21.094,No
 Zone Internal Gains Nominal, F2 S1 APARTMENT,88.25,2.5,35.299,2.833E-002,14.424,6.670,0.000,0.000,0.000,0.000,21.094,No
 Zone Internal Gains Nominal, F2 S2 APARTMENT,88.25,2.5,35.299,2.833E-002,14.424,6.670,0.000,0.000,0.000,0.000,21.094,No
 Zone Internal Gains Nominal, F2 SE APARTMENT,88.25,2.5,35.299,2.833E-002,14.424,6.670,0.000,0.000,0.000,0.000,21.094,No
 Zone Internal Gains Nominal, F2 SW APARTMENT,88.25,2.5,35.299,2.833E-002,14.424,6.670,0.000,0.000,0.000,0.000,21.094,No
 Zone Internal Gains Nominal, F3 CORRIDOR,77.66,0.0,N/A,0.000,8.525,0.000,0.000,0.000,0.000,0.000,8.525,No
 Zone Internal Gains Nominal, F3 N1 APARTMENT,88.25,2.5,35.299,2.833E-002,14.424,6.670,0.000,0.000,0.000,0.000,21.094,No
 Zone Internal Gains Nominal, F3 N2 APARTMENT,88.25,2.5,35.299,2.833E-002,14.424,6.670,0.000,0.000,0.000,0.000,21.094,No
 Zone Internal Gains Nominal, F3 NE APARTMENT,88.25,2.5,35.299,2.833E-002,14.424,6.670,0.000,0.000,0.000,0.000,21.094,No
 Zone Internal Gains Nominal, F3 NW APARTMENT,88.25,2.5,35.299,2.833E-002,14.424,6.670,0.000,0.000,0.000,0.000,21.094,No
 Zone Internal Gains Nominal, F3 S1 APARTMENT,88.25,2.5,35.299,2.833E-002,14.424,6.670,0.000,0.000,0.000,0.000,21.094,No
 Zone Internal Gains Nominal, F3 S2 APARTMENT,88.25,2.5,35.299,2.833E-002,14.424,6.670,0.000,0.000,0.000,0.000,21.094,No
 Zone Internal Gains Nominal, F3 SE APARTMENT,88.25,2.5,35.299,2.833E-002,14.424,6.670,0.000,0.000,0.000,0.000,21.094,No
 Zone Internal Gains Nominal, F3 SW APARTMENT,88.25,2.5,35.299,2.833E-002,14.424,6.670,0.000,0.000,0.000,0.000,21.094,No
 Zone Internal Gains Nominal, F4 CORRIDOR,77.66,0.0,N/A,0.000,8.525,0.000,0.000,0.000,0.000,0.000,8.525,No
 Zone Internal Gains Nominal, F4 N1 APARTMENT,88.25,2.5,35.299,2.833E-002,14.424,6.670,0.000,0.000,0.000,0.000,21.094,No
 Zone Internal Gains Nominal, F4 N2 APARTMENT,88.25,2.5,35.299,2.833E-002,14.424,6.670,0.000,0.000,0.000,0.000,21.094,No
 Zone Internal Gains Nominal, F4 NE APARTMENT,88.25,2.5,35.299,2.833E-002,14.424,6.670,0.000,0.000,0.000,0.000,21.094,No
 Zone Internal Gains Nominal, F4 NW APARTMENT,88.25,2.5,35.299,2.833E-002,14.424,6.670,0.000,0.000,0.000,0.000,21.094,No
 Zone Internal Gains Nominal, F4 S1 APARTMENT,88.25,2.5,35.299,2.833E-002,14.424,6.670,0.000,0.000,0.000,0.000,21.094,No
 Zone Internal Gains Nominal, F4 S2 APARTMENT,88.25,2.5,35.299,2.833E-002,14.424,6.670,0.000,0.000,0.000,0.000,21.094,No
 Zone Internal Gains Nominal, F4 SE APARTMENT,88.25,2.5,35.299,2.833E-002,14.424,6.670,0.000,0.000,0.000,0.000,21.094,No
 Zone Internal Gains Nominal, F4 SW APARTMENT,88.25,2.5,35.299,2.833E-002,14.424,6.670,0.000,0.000,0.000,0.000,21.094,No
 Zone Internal Gains Nominal, F6 CORRIDOR,77.66,0.0,N/A,0.000,8.525,0.000,0.000,0.000,0.000,0.000,8.525,No
 Zone Internal Gains Nominal, F6 N1 APARTMENT,88.25,2.5,35.299,2.833E-002,14.424,6.670,0.000,0.000,0.000,0.000,21.094,No
 Zone Internal Gains Nominal, F6 N2 APARTMENT,88.25,2.5,35.299,2.833E-002,14.424,6.670,0.000,0.000,0.000,0.000,21.094,No
 Zone Internal Gains Nominal, F6 NE APARTMENT,88.25,2.5,35.299,2.833E-002,14.424,6.670,0.000,0.000,0.000,0.000,21.094,No
 Zone Internal Gains Nominal, F6 NW APARTMENT,88.25,2.5,35.299,2.833E-002,14.424,6.670,0.000,0.000,0.000,0.000,21.094,No
 Zone Internal Gains Nominal, F6 S1 APARTMENT,88.25,2.5,35.299,2.833E-002,14.424,6.670,0.000,0.000,0.000,0.000,21.094,No
 Zone Internal Gains Nominal, F6 S2 APARTMENT,88.25,2.5,35.299,2.833E-002,14.424,6.670,0.000,0.000,0.000,0.000,21.094,No
 Zone Internal Gains Nominal, F6 SE APARTMENT,88.25,2.5,35.299,2.833E-002,14.424,6.670,0.000,0.000,0.000,0.000,21.094,No
 Zone Internal Gains Nominal, F6 SW APARTMENT,88.25,2.5,35.299,2.833E-002,14.424,6.670,0.000,0.000,0.000,0.000,21.094,No
 Zone Internal Gains Nominal, F7 CORRIDOR,77.66,0.0,N/A,0.000,8.525,0.000,0.000,0.000,0.000,0.000,8.525,No
 Zone Internal Gains Nominal, F7 N1 APARTMENT,88.25,2.5,35.299,2.833E-002,14.424,6.670,0.000,0.000,0.000,0.000,21.094,No
 Zone Internal Gains Nominal, F7 N2 APARTMENT,88.25,2.5,35.299,2.833E-002,14.424,6.670,0.000,0.000,0.000,0.000,21.094,No
 Zone Internal Gains Nominal, F7 NE APARTMENT,88.25,2.5,35.299,2.833E-002,14.424,6.670,0.000,0.000,0.000,0.000,21.094,No
 Zone Internal Gains Nominal, F7 NW APARTMENT,88.25,2.5,35.299,2.833E-002,14.424,6.670,0.000,0.000,0.000,0.000,21.094,No
 Zone Internal Gains Nominal, F7 S1 APARTMENT,88.25,2.5,35.299,2.833E-002,14.424,6.670,0.000,0.000,0.000,0.000,21.094,No
 Zone Internal Gains Nominal, F7 S2 APARTMENT,88.25,2.5,35.299,2.833E-002,14.424,6.670,0.000,0.000,0.000,0.000,21.094,No
 Zone Internal Gains Nominal, F7 SE APARTMENT,88.25,2.5,35.299,2.833E-002,14.424,6.670,0.000,0.000,0.000,0.000,21.094,No
 Zone Internal Gains Nominal, F7 SW APARTMENT,88.25,2.5,35.299,2.833E-002,14.424,6.670,0.000,0.000,0.000,0.000,21.094,No
 Zone Internal Gains Nominal, F8 CORRIDOR,77.66,0.0,N/A,0.000,8.525,0.000,0.000,0.000,0.000,0.000,8.525,No
 Zone Internal Gains Nominal, F8 N1 APARTMENT,88.25,2.5,35.299,2.833E-002,14.424,6.670,0.000,0.000,0.000,0.000,21.094,No
 Zone Internal Gains Nominal, F8 N2 APARTMENT,88.25,2.5,35.299,2.833E-002,14.424,6.670,0.000,0.000,0.000,0.000,21.094,No
 Zone Internal Gains Nominal, F8 NE APARTMENT,88.25,2.5,35.299,2.833E-002,14.424,6.670,0.000,0.000,0.000,0.000,21.094,No
 Zone Internal Gains Nominal, F8 NW APARTMENT,88.25,2.5,35.299,2.833E-002,14.424,6.670,0.000,0.000,0.000,0.000,21.094,No
 Zone Internal Gains Nominal, F8 S1 APARTMENT,88.25,2.5,35.299,2.833E-002,14.424,6.670,0.000,0.000,0.000,0.000,21.094,No
 Zone Internal Gains Nominal, F8 S2 APARTMENT,88.25,2.5,35.299,2.833E-002,14.424,6.670,0.000,0.000,0.000,0.000,21.094,No
 Zone Internal Gains Nominal, F8 SE APARTMENT,88.25,2.5,35.299,2.833E-002,14.424,6.670,0.000,0.000,0.000,0.000,21.094,No
 Zone Internal Gains Nominal, F8 SW APARTMENT,88.25,2.5,35.299,2.833E-002,14.424,6.670,0.000,0.000,0.000,0.000,21.094,No
 Zone Internal Gains Nominal, F9 CORRIDOR,77.66,0.0,N/A,0.000,8.525,0.000,0.000,0.000,0.000,0.000,8.525,No
 Zone Internal Gains Nominal, F9 N1 APARTMENT,88.25,2.5,35.299,2.833E-002,14.424,6.670,0.000,0.000,0.000,0.000,21.094,No
 Zone Internal Gains Nominal, F9 N2 APARTMENT,88.25,2.5,35.299,2.833E-002,14.424,6.670,0.000,0.000,0.000,0.000,21.094,No
 Zone Internal Gains Nominal, F9 NE APARTMENT,88.25,2.5,35.299,2.833E-002,14.424,6.670,0.000,0.000,0.000,0.000,21.094,No
 Zone Internal Gains Nominal, F9 NW APARTMENT,88.25,2.5,35.299,2.833E-002,14.424,6.670,0.000,0.000,0.000,0.000,21.094,No
 Zone Internal Gains Nominal, F9 S1 APARTMENT,88.25,2.5,35.299,2.833E-002,14.424,6.670,0.000,0.000,0.000,0.000,21.094,No
 Zone Internal Gains Nominal, F9 S2 APARTMENT,88.25,2.5,35.299,2.833E-002,14.424,6.670,0.000,0.000,0.000,0.000,21.094,No
 Zone Internal Gains Nominal, F9 SE APARTMENT,88.25,2.5,35.299,2.833E-002,14.424,6.670,0.000,0.000,0.000,0.000,21.094,No
 Zone Internal Gains Nominal, F9 SW APARTMENT,88.25,2.5,35.299,2.833E-002,14.424,6.670,0.000,0.000,0.000,0.000,21.094,No
 Zone Internal Gains Nominal, G CORRIDOR,77.66,0.0,N/A,0.000,8.525,0.000,0.000,0.000,0.000,0.000,8.525,No
 Zone Internal Gains Nominal, G N1 APARTMENT,88.25,2.5,35.299,2.833E-002,14.424,6.670,0.000,0.000,0.000,0.000,21.094,No
 Zone Internal Gains Nominal, G N2 APARTMENT,88.25,2.5,35.299,2.833E-002,14.424,6.670,0.000,0.000,0.000,0.000,21.094,No
 Zone Internal Gains Nominal, G NE APARTMENT,88.25,2.5,35.299,2.833E-002,14.424,6.670,0.000,0.000,0.000,0.000,21.094,No
 Zone Internal Gains Nominal, G NW APARTMENT,88.25,2.5,35.299,2.833E-002,14.424,6.670,0.000,0.000,0.000,0.000,21.094,No
 Zone Internal Gains Nominal, G S1 APARTMENT,88.25,2.5,35.299,2.833E-002,14.424,6.670,0.000,0.000,0.000,0.000,21.094,No
 Zone Internal Gains Nominal, G S2 APARTMENT,88.25,2.5,35.299,2.833E-002,14.424,6.670,0.000,0.000,0.000,0.000,21.094,No
 Zone Internal Gains Nominal, G SW APARTMENT,88.25,2.5,35.299,2.833E-002,14.424,6.670,0.000,0.000,0.000,0.000,21.094,No
 Zone Internal Gains Nominal, M CORRIDOR,77.66,0.0,N/A,0.000,8.525,0.000,0.000,0.000,0.000,0.000,8.525,No
 Zone Internal Gains Nominal, M N1 APARTMENT,88.25,2.5,35.299,2.833E-002,14.424,6.670,0.000,0.000,0.000,0.000,21.094,No
 Zone Internal Gains Nominal, M N2 APARTMENT,88.25,2.5,35.299,2.833E-002,14.424,6.670,0.000,0.000,0.000,0.000,21.094,No
 Zone Internal Gains Nominal, M NE APARTMENT,88.25,2.5,35.299,2.833E-002,14.424,6.670,0.000,0.000,0.000,0.000,21.094,No
 Zone Internal Gains Nominal, M NW APARTMENT,88.25,2.5,35.299,2.833E-002,14.424,6.670,0.000,0.000,0.000,0.000,21.094,No
 Zone Internal Gains Nominal, M S1 APARTMENT,88.25,2.5,35.299,2.833E-002,14.424,6.670,0.000,0.000,0.000,0.000,21.094,No
 Zone Internal Gains Nominal, M S2 APARTMENT,88.25,2.5,35.299,2.833E-002,14.424,6.670,0.000,0.000,0.000,0.000,21.094,No
 Zone Internal Gains Nominal, M SE APARTMENT,88.25,2.5,35.299,2.833E-002,14.424,6.670,0.000,0.000,0.000,0.000,21.094,No
 Zone Internal Gains Nominal, M SW APARTMENT,88.25,2.5,35.299,2.833E-002,14.424,6.670,0.000,0.000,0.000,0.000,21.094,No
 Zone Internal Gains Nominal, OFFICE,88.25,1.0,88.249,1.133E-002,11.948,6.670,0.000,0.000,0.000,0.000,18.618,No
 Zone Internal Gains Nominal, T CORRIDOR,77.66,0.0,N/A,0.000,8.525,263.114,0.000,0.000,0.000,0.000,271.639,No
 Zone Internal Gains Nominal, T N1 APARTMENT,88.25,2.5,35.299,2.833E-002,14.424,6.670,0.000,0.000,0.000,0.000,21.094,No
 Zone Internal Gains Nominal, T N2 APARTMENT,88.25,2.5,35.299,2.833E-002,14.424,6.670,0.000,0.000,0.000,0.000,21.094,No
 Zone Internal Gains Nominal, T NE APARTMENT,88.25,2.5,35.299,2.833E-002,14.424,6.670,0.000,0.000,0.000,0.000,21.094,No
 Zone Internal Gains Nominal, T NW APARTMENT,88.25,2.5,35.299,2.833E-002,14.424,6.670,0.000,0.000,0.000,0.000,21.094,No
 Zone Internal Gains Nominal, T S1 APARTMENT,88.25,2.5,35.299,2.833E-002,14.424,6.670,0.000,0.000,0.000,0.000,21.094,No
 Zone Internal Gains Nominal, T S2 APARTMENT,88.25,2.5,35.299,2.833E-002,14.424,6.670,0.000,0.000,0.000,0.000,21.094,No
 Zone Internal Gains Nominal, T SE APARTMENT,88.25,2.5,35.299,2.833E-002,14.424,6.670,0.000,0.000,0.000,0.000,21.094,No
 Zone Internal Gains Nominal, T SW APARTMENT,88.25,2.5,35.299,2.833E-002,14.424,6.670,0.000,0.000,0.000,0.000,21.094,No
! <People Internal Gains Nominal>,Name,Schedule Name,Zone Name,Zone Floor Area {m2},# Zone Occupants,Number of People {},People/Floor Area {person/m2},Floor Area per person {m2/person},Fraction Radiant,Fraction Convected,Sensible Fraction Calculation,Activity level,ASHRAE 55 Warnings,Carbon Dioxide Generation Rate,Nominal Minimum Number of People,Nominal Maximum Number of People
 People Internal Gains Nominal, F2 N1 APARTMENT PEOPLE,OCC_APT_SCH,F2 N1 APARTMENT,88.25,2.5,2.5,2.833E-002,35.299,0.300,0.700,AutoCalculate,ACTIVITY SCHEDULE,No,3.8200E-008,1,3
 People Internal Gains Nominal, F2 N2 APARTMENT PEOPLE,OCC_APT_SCH,F2 N2 APARTMENT,88.25,2.5,2.5,2.833E-002,35.299,0.300,0.700,AutoCalculate,ACTIVITY SCHEDULE,No,3.8200E-008,1,3
 People Internal Gains Nominal, F2 NE APARTMENT PEOPLE,OCC_APT_SCH,F2 NE APARTMENT,88.25,2.5,2.5,2.833E-002,35.299,0.300,0.700,AutoCalculate,ACTIVITY SCHEDULE,No,3.8200E-008,1,3
 People Internal Gains Nominal, F2 NW APARTMENT PEOPLE,OCC_APT_SCH,F2 NW APARTMENT,88.25,2.5,2.5,2.833E-002,35.299,0.300,0.700,AutoCalculate,ACTIVITY SCHEDULE,No,3.8200E-008,1,3
 People Internal Gains Nominal, F2 S1 APARTMENT PEOPLE,OCC_APT_SCH,F2 S1 APARTMENT,88.25,2.5,2.5,2.833E-002,35.299,0.300,0.700,AutoCalculate,ACTIVITY SCHEDULE,No,3.8200E-008,1,3
 People Internal Gains Nominal, F2 S2 APARTMENT PEOPLE,OCC_APT_SCH,F2 S2 APARTMENT,88.25,2.5,2.5,2.833E-002,35.299,0.300,0.700,AutoCalculate,ACTIVITY SCHEDULE,No,3.8200E-008,1,3
 People Internal Gains Nominal, F2 SE APARTMENT PEOPLE,OCC_APT_SCH,F2 SE APARTMENT,88.25,2.5,2.5,2.833E-002,35.299,0.300,0.700,AutoCalculate,ACTIVITY SCHEDULE,No,3.8200E-008,1,3
 People Internal Gains Nominal, F2 SW APARTMENT PEOPLE,OCC_APT_SCH,F2 SW APARTMENT,88.25,2.5,2.5,2.833E-002,35.299,0.300,0.700,AutoCalculate,ACTIVITY SCHEDULE,No,3.8200E-008,1,3
 People Internal Gains Nominal, F3 N1 APARTMENT PEOPLE,OCC_APT_SCH,F3 N1 APARTMENT,88.25,2.5,2.5,2.833E-002,35.299,0.300,0.700,AutoCalculate,ACTIVITY SCHEDULE,No,3.8200E-008,1,3
 People Internal Gains Nominal, F3 N2 APARTMENT PEOPLE,OCC_APT_SCH,F3 N2 APARTMENT,88.25,2.5,2.5,2.833E-002,35.299,0.300,0.700,AutoCalculate,ACTIVITY SCHEDULE,No,3.8200E-008,1,3
 People Internal Gains Nominal, F3 NE APARTMENT PEOPLE,OCC_APT_SCH,F3 NE APARTMENT,88.25,2.5,2.5,2.833E-002,35.299,0.300,0.700,AutoCalculate,ACTIVITY SCHEDULE,No,3.8200E-008,1,3
 People Internal Gains Nominal, F3 NW APARTMENT PEOPLE,OCC_APT_SCH,F3 NW APARTMENT,88.25,2.5,2.5,2.833E-002,35.299,0.300,0.700,AutoCalculate,ACTIVITY SCHEDULE,No,3.8200E-008,1,3
 People Internal Gains Nominal, F3 S1 APARTMENT PEOPLE,OCC_APT_SCH,F3 S1 APARTMENT,88.25,2.5,2.5,2.833E-002,35.299,0.300,0.700,AutoCalculate,ACTIVITY SCHEDULE,No,3.8200E-008,1,3
 People Internal Gains Nominal, F3 S2 APARTMENT PEOPLE,OCC_APT_SCH,F3 S2 APARTMENT,88.25,2.5,2.5,2.833E-002,35.299,0.300,0.700,AutoCalculate,ACTIVITY SCHEDULE,No,3.8200E-008,1,3
 People Internal Gains Nominal, F3 SE APARTMENT PEOPLE,OCC_APT_SCH,F3 SE APARTMENT,88.25,2.5,2.5,2.833E-002,35.299,0.300,0.700,AutoCalculate,ACTIVITY SCHEDULE,No,3.8200E-008,1,3
 People Internal Gains Nominal, F3 SW APARTMENT PEOPLE,OCC_APT_SCH,F3 SW APARTMENT,88.25,2.5,2.5,2.833E-002,35.299,0.300,0.700,AutoCalculate,ACTIVITY SCHEDULE,No,3.8200E-008,1,3
 People Internal Gains Nominal, F4 N1 APARTMENT PEOPLE,OCC_APT_SCH,F4 N1 APARTMENT,88.25,2.5,2.5,2.833E-002,35.299,0.300,0.700,AutoCalculate,ACTIVITY SCHEDULE,No,3.8200E-008,1,3
 People Internal Gains Nominal, F4 N2 APARTMENT PEOPLE,OCC_APT_SCH,F4 N2 APARTMENT,88.25,2.5,2.5,2.833E-002,35.299,0.300,0.700,AutoCalculate,ACTIVITY SCHEDULE,No,3.8200E-008,1,3
 People Internal Gains Nominal, F4 NE APARTMENT PEOPLE,OCC_APT_SCH,F4 NE APARTMENT,88.25,2.5,2.5,2.833E-002,35.299,0.300,0.700,AutoCalculate,ACTIVITY SCHEDULE,No,3.8200E-008,1,3
 People Internal Gains Nominal, F4 NW APARTMENT PEOPLE,OCC_APT_SCH,F4 NW APARTMENT,88.25,2.5,2.5,2.833E-002,35.299,0.300,0.700,AutoCalculate,ACTIVITY SCHEDULE,No,3.8200E-008,1,3
 People Internal Gains Nominal, F4 S1 APARTMENT PEOPLE,OCC_APT_SCH,F4 S1 APARTMENT,88.25,2.5,2.5,2.833E-002,35.299,0.300,0.700,AutoCalculate,ACTIVITY SCHEDULE,No,3.8200E-008,1,3
 People Internal Gains Nominal, F4 S2 APARTMENT PEOPLE,OCC_APT_SCH,F4 S2 APARTMENT,88.25,2.5,2.5,2.833E-002,35.299,0.300,0.700,AutoCalculate,ACTIVITY SCHEDULE,No,3.8200E-008,1,3
 People Internal Gains Nominal, F4 SE APARTMENT PEOPLE,OCC_APT_SCH,F4 SE APARTMENT,88.25,2.5,2.5,2.833E-002,35.299,0.300,0.700,AutoCalculate,ACTIVITY SCHEDULE,No,3.8200E-008,1,3
 People Internal Gains Nominal, F4 SW APARTMENT PEOPLE,OCC_APT_SCH,F4 SW APARTMENT,88.25,2.5,2.5,2.833E-002,35.299,0.300,0.700,AutoCalculate,ACTIVITY SCHEDULE,No,3.8200E-008,1,3
 People Internal Gains Nominal, F6 N1 APARTMENT PEOPLE,OCC_APT_SCH,F6 N1 APARTMENT,88.25,2.5,2.5,2.833E-002,35.299,0.300,0.700,AutoCalculate,ACTIVITY SCHEDULE,No,3.8200E-008,1,3
 People Internal Gains Nominal, F6 N2 APARTMENT PEOPLE,OCC_APT_SCH,F6 N2 APARTMENT,88.25,2.5,2.5,2.833E-002,35.299,0.300,0.700,AutoCalculate,ACTIVITY SCHEDULE,No,3.8200E-008,1,3
 People Internal Gains Nominal, F6 NE APARTMENT PEOPLE,OCC_APT_SCH,F6 NE APARTMENT,88.25,2.5,2.5,2.833E-002,35.299,0.300,0.700,AutoCalculate,ACTIVITY SCHEDULE,No,3.8200E-008,1,3
 People Internal Gains Nominal, F6 NW APARTMENT PEOPLE,OCC_APT_SCH,F6 NW APARTMENT,88.25,2.5,2.5,2.833E-002,35.299,0.300,0.700,AutoCalculate,ACTIVITY SCHEDULE,No,3.8200E-008,1,3
 People Internal Gains Nominal, F6 S1 APARTMENT PEOPLE,OCC_APT_SCH,F6 S1 APARTMENT,88.25,2.5,2.5,2.833E-002,35.299,0.300,0.700,AutoCalculate,ACTIVITY SCHEDULE,No,3.8200E-008,1,3
 People Internal Gains Nominal, F6 S2 APARTMENT PEOPLE,OCC_APT_SCH,F6 S2 APARTMENT,88.25,2.5,2.5,2.833E-002,35.299,0.300,0.700,AutoCalculate,ACTIVITY SCHEDULE,No,3.8200E-008,1,3
 People Internal Gains Nominal, F6 SE APARTMENT PEOPLE,OCC_APT_SCH,F6 SE APARTMENT,88.25,2.5,2.5,2.833E-002,35.299,0.300,0.700,AutoCalculate,ACTIVITY SCHEDULE,No,3.8200E-008,1,3
 People Internal Gains Nominal, F6 SW APARTMENT PEOPLE,OCC_APT_SCH,F6 SW APARTMENT,88.25,2.5,2.5,2.833E-002,35.299,0.300,0.700,AutoCalculate,ACTIVITY SCHEDULE,No,3.8200E-008,1,3
 People Internal Gains Nominal, F7 N1 APARTMENT PEOPLE,OCC_APT_SCH,F7 N1 APARTMENT,88.25,2.5,2.5,2.833E-002,35.299,0.300,0.700,AutoCalculate,ACTIVITY SCHEDULE,No,3.8200E-008,1,3
 People Internal Gains Nominal, F7 N2 APARTMENT PEOPLE,OCC_APT_SCH,F7 N2 APARTMENT,88.25,2.5,2.5,2.833E-002,35.299,0.300,0.700,AutoCalculate,ACTIVITY SCHEDULE,No,3.8200E-008,1,3
 People Internal Gains Nominal, F7 NE APARTMENT PEOPLE,OCC_APT_SCH,F7 NE APARTMENT,88.25,2.5,2.5,2.833E-002,35.299,0.300,0.700,AutoCalculate,ACTIVITY SCHEDULE,No,3.8200E-008,1,3
 People Internal Gains Nominal, F7 NW APARTMENT PEOPLE,OCC_APT_SCH,F7 NW APARTMENT,88.25,2.5,2.5,2.833E-002,35.299,0.300,0.700,AutoCalculate,ACTIVITY SCHEDULE,No,3.8200E-008,1,3
 People Internal Gains Nominal, F7 S1 APARTMENT PEOPLE,OCC_APT_SCH,F7 S1 APARTMENT,88.25,2.5,2.5,2.833E-002,35.299,0.300,0.700,AutoCalculate,ACTIVITY SCHEDULE,No,3.8200E-008,1,3
 People Internal Gains Nominal, F7 S2 APARTMENT PEOPLE,OCC_APT_SCH,F7 S2 APARTMENT,88.25,2.5,2.5,2.833E-002,35.299,0.300,0.700,AutoCalculate,ACTIVITY SCHEDULE,No,3.8200E-008,1,3
 People Internal Gains Nominal, F7 SE APARTMENT PEOPLE,OCC_APT_SCH,F7 SE APARTMENT,88.25,2.5,2.5,2.833E-002,35.299,0.300,0.700,AutoCalculate,ACTIVITY SCHEDULE,No,3.8200E-008,1,3
 People Internal Gains Nominal, F7 SW APARTMENT PEOPLE,OCC_APT_SCH,F7 SW APARTMENT,88.25,2.5,2.5,2.833E-002,35.299,0.300,0.700,AutoCalculate,ACTIVITY SCHEDULE,No,3.8200E-008,1,3
 People Internal Gains Nominal, F8 N1 APARTMENT PEOPLE,OCC_APT_SCH,F8 N1 APARTMENT,88.25,2.5,2.5,2.833E-002,35.299,0.300,0.700,AutoCalculate,ACTIVITY SCHEDULE,No,3.8200E-008,1,3
 People Internal Gains Nominal, F8 N2 APARTMENT PEOPLE,OCC_APT_SCH,F8 N2 APARTMENT,88.25,2.5,2.5,2.833E-002,35.299,0.300,0.700,AutoCalculate,ACTIVITY SCHEDULE,No,3.8200E-008,1,3
 People Internal Gains Nominal, F8 NE APARTMENT PEOPLE,OCC_APT_SCH,F8 NE APARTMENT,88.25,2.5,2.5,2.833E-002,35.299,0.300,0.700,AutoCalculate,ACTIVITY SCHEDULE,No,3.8200E-008,1,3
 People Internal Gains Nominal, F8 NW APARTMENT PEOPLE,OCC_APT_SCH,F8 NW APARTMENT,88.25,2.5,2.5,2.833E-002,35.299,0.300,0.700,AutoCalculate,ACTIVITY SCHEDULE,No,3.8200E-008,1,3
 People Internal Gains Nominal, F8 S1 APARTMENT PEOPLE,OCC_APT_SCH,F8 S1 APARTMENT,88.25,2.5,2.5,2.833E-002,35.299,0.300,0.700,AutoCalculate,ACTIVITY SCHEDULE,No,3.8200E-008,1,3
 People Internal Gains Nominal, F8 S2 APARTMENT PEOPLE,OCC_APT_SCH,F8 S2 APARTMENT,88.25,2.5,2.5,2.833E-002,35.299,0.300,0.700,AutoCalculate,ACTIVITY SCHEDULE,No,3.8200E-008,1,3
 People Internal Gains Nominal, F8 SE APARTMENT PEOPLE,OCC_APT_SCH,F8 SE APARTMENT,88.25,2.5,2.5,2.833E-002,35.299,0.300,0.700,AutoCalculate,ACTIVITY SCHEDULE,No,3.8200E-008,1,3
 People Internal Gains Nominal, F8 SW APARTMENT PEOPLE,OCC_APT_SCH,F8 SW APARTMENT,88.25,2.5,2.5,2.833E-002,35.299,0.300,0.700,AutoCalculate,ACTIVITY SCHEDULE,No,3.8200E-008,1,3
 People Internal Gains Nominal, F9 N1 APARTMENT PEOPLE,OCC_APT_SCH,F9 N1 APARTMENT,88.25,2.5,2.5,2.833E-002,35.299,0.300,0.700,AutoCalculate,ACTIVITY SCHEDULE,No,3.8200E-008,1,3
 People Internal Gains Nominal, F9 N2 APARTMENT PEOPLE,OCC_APT_SCH,F9 N2 APARTMENT,88.25,2.5,2.5,2.833E-002,35.299,0.300,0.700,AutoCalculate,ACTIVITY SCHEDULE,No,3.8200E-008,1,3
 People Internal Gains Nominal, F9 NE APARTMENT PEOPLE,OCC_APT_SCH,F9 NE APARTMENT,88.25,2.5,2.5,2.833E-002,35.299,0.300,0.700,AutoCalculate,ACTIVITY SCHEDULE,No,3.8200E-008,1,3
 People Internal Gains Nominal, F9 NW APARTMENT PEOPLE,OCC_APT_SCH,F9 NW APARTMENT,88.25,2.5,2.5,2.833E-002,35.299,0.300,0.700,AutoCalculate,ACTIVITY SCHEDULE,No,3.8200E-008,1,3
 People Internal Gains Nominal, F9 S1 APARTMENT PEOPLE,OCC_APT_SCH,F9 S1 APARTMENT,88.25,2.5,2.5,2.833E-002,35.299,0.300,0.700,AutoCalculate,ACTIVITY SCHEDULE,No,3.8200E-008,1,3
 People Internal Gains Nominal, F9 S2 APARTMENT PEOPLE,OCC_APT_SCH,F9 S2 APARTMENT,88.25,2.5,2.5,2.833E-002,35.299,0.300,0.700,AutoCalculate,ACTIVITY SCHEDULE,No,3.8200E-008,1,3
 People Internal Gains Nominal, F9 SE APARTMENT PEOPLE,OCC_APT_SCH,F9 SE APARTMENT,88.25,2.5,2.5,2.833E-002,35.299,0.300,0.700,AutoCalculate,ACTIVITY SCHEDULE,No,3.8200E-008,1,3
 People Internal Gains Nominal, F9 SW APARTMENT PEOPLE,OCC_APT_SCH,F9 SW APARTMENT,88.25,2.5,2.5,2.833E-002,35.299,0.300,0.700,AutoCalculate,ACTIVITY SCHEDULE,No,3.8200E-008,1,3
 People Internal Gains Nominal, G N1 APARTMENT PEOPLE,OCC_APT_SCH,G N1 APARTMENT,88.25,2.5,2.5,2.833E-002,35.299,0.300,0.700,AutoCalculate,ACTIVITY SCHEDULE,No,3.8200E-008,1,3
 People Internal Gains Nominal, G N2 APARTMENT PEOPLE,OCC_APT_SCH,G N2 APARTMENT,88.25,2.5,2.5,2.833E-002,35.299,0.300,0.700,AutoCalculate,ACTIVITY SCHEDULE,No,3.8200E-008,1,3
 People Internal Gains Nominal, G NE APARTMENT PEOPLE,OCC_APT_SCH,G NE APARTMENT,88.25,2.5,2.5,2.833E-002,35.299,0.300,0.700,AutoCalculate,ACTIVITY SCHEDULE,No,3.8200E-008,1,3
 People Internal Gains Nominal, G NW APARTMENT PEOPLE,OCC_APT_SCH,G NW APARTMENT,88.25,2.5,2.5,2.833E-002,35.299,0.300,0.700,AutoCalculate,ACTIVITY SCHEDULE,No,3.8200E-008,1,3
 People Internal Gains Nominal, G S1 APARTMENT PEOPLE,OCC_APT_SCH,G S1 APARTMENT,88.25,2.5,2.5,2.833E-002,35.299,0.300,0.700,AutoCalculate,ACTIVITY SCHEDULE,No,3.8200E-008,1,3
 People Internal Gains Nominal, G S2 APARTMENT PEOPLE,OCC_APT_SCH,G S2 APARTMENT,88.25,2.5,2.5,2.833E-002,35.299,0.300,0.700,AutoCalculate,ACTIVITY SCHEDULE,No,3.8200E-008,1,3
 People Internal Gains Nominal, G SW APARTMENT PEOPLE,OCC_APT_SCH,G SW APARTMENT,88.25,2.5,2.5,2.833E-002,35.299,0.500,0.500,AutoCalculate,ACTIVITY SCHEDULE,No,3.8200E-008,1,3
 People Internal Gains Nominal, M N1 APARTMENT PEOPLE,OCC_APT_SCH,M N1 APARTMENT,88.25,2.5,2.5,2.833E-002,35.299,0.300,0.700,AutoCalculate,ACTIVITY SCHEDULE,No,3.8200E-008,1,3
 People Internal Gains Nominal, M N2 APARTMENT PEOPLE,OCC_APT_SCH,M N2 APARTMENT,88.25,2.5,2.5,2.833E-002,35.299,0.300,0.700,AutoCalculate,ACTIVITY SCHEDULE,No,3.8200E-008,1,3
 People Internal Gains Nominal, M NE APARTMENT PEOPLE,OCC_APT_SCH,M NE APARTMENT,88.25,2.5,2.5,2.833E-002,35.299,0.300,0.700,AutoCalculate,ACTIVITY SCHEDULE,No,3.8200E-008,1,3
 People Internal Gains Nominal, M NW APARTMENT PEOPLE,OCC_APT_SCH,M NW APARTMENT,88.25,2.5,2.5,2.833E-002,35.299,0.300,0.700,AutoCalculate,ACTIVITY SCHEDULE,No,3.8200E-008,1,3
 People Internal Gains Nominal, M S1 APARTMENT PEOPLE,OCC_APT_SCH,M S1 APARTMENT,88.25,2.5,2.5,2.833E-002,35.299,0.300,0.700,AutoCalculate,ACTIVITY SCHEDULE,No,3.8200E-008,1,3
 People Internal Gains Nominal, M S2 APARTMENT PEOPLE,OCC_APT_SCH,M S2 APARTMENT,88.25,2.5,2.5,2.833E-002,35.299,0.300,0.700,AutoCalculate,ACTIVITY SCHEDULE,No,3.8200E-008,1,3
 People Internal Gains Nominal, M SE APARTMENT PEOPLE,OCC_APT_SCH,M SE APARTMENT,88.25,2.5,2.5,2.833E-002,35.299,0.300,0.700,AutoCalculate,ACTIVITY SCHEDULE,No,3.8200E-008,1,3
 People Internal Gains Nominal, M SW APARTMENT PEOPLE,OCC_APT_SCH,M SW APARTMENT,88.25,2.5,2.5,2.833E-002,35.299,0.300,0.700,AutoCalculate,ACTIVITY SCHEDULE,No,3.8200E-008,1,3
 People Internal Gains Nominal, OFFICE PEOPLE,OCC_OFF_W_SB_SCH,OFFICE,88.25,1.0,1.0,1.133E-002,88.249,0.300,0.700,AutoCalculate,ACTIVITY SCHEDULE,No,3.8200E-008,0,1
 People Internal Gains Nominal, T N1 APARTMENT PEOPLE,OCC_APT_SCH,T N1 APARTMENT,88.25,2.5,2.5,2.833E-002,35.299,0.300,0.700,AutoCalculate,ACTIVITY SCHEDULE,No,3.8200E-008,1,3
 People Internal Gains Nominal, T N2 APARTMENT PEOPLE,OCC_APT_SCH,T N2 APARTMENT,88.25,2.5,2.5,2.833E-002,35.299,0.300,0.700,AutoCalculate,ACTIVITY SCHEDULE,No,3.8200E-008,1,3
 People Internal Gains Nominal, T NE APARTMENT PEOPLE,OCC_APT_SCH,T NE APARTMENT,88.25,2.5,2.5,2.833E-002,35.299,0.300,0.700,AutoCalculate,ACTIVITY SCHEDULE,No,3.8200E-008,1,3
 People Internal Gains Nominal, T NW APARTMENT PEOPLE,OCC_APT_SCH,T NW APARTMENT,88.25,2.5,2.5,2.833E-002,35.299,0.300,0.700,AutoCalculate,ACTIVITY SCHEDULE,No,3.8200E-008,1,3
 People Internal Gains Nominal, T S1 APARTMENT PEOPLE,OCC_APT_SCH,T S1 APARTMENT,88.25,2.5,2.5,2.833E-002,35.299,0.300,0.700,AutoCalculate,ACTIVITY SCHEDULE,No,3.8200E-008,1,3
 People Internal Gains Nominal, T S2 APARTMENT PEOPLE,OCC_APT_SCH,T S2 APARTMENT,88.25,2.5,2.5,2.833E-002,35.299,0.300,0.700,AutoCalculate,ACTIVITY SCHEDULE,No,3.8200E-008,1,3
 People Internal Gains Nominal, T SE APARTMENT PEOPLE,OCC_APT_SCH,T SE APARTMENT,88.25,2.5,2.5,2.833E-002,35.299,0.300,0.700,AutoCalculate,ACTIVITY SCHEDULE,No,3.8200E-008,1,3
 People Internal Gains Nominal, T SW APARTMENT PEOPLE,OCC_APT_SCH,T SW APARTMENT,88.25,2.5,2.5,2.833E-002,35.299,0.300,0.700,AutoCalculate,ACTIVITY SCHEDULE,No,3.8200E-008,1,3
! <Lights Internal Gains Nominal>,Name,Schedule Name,Zone Name,Zone Floor Area {m2},# Zone Occupants,Lighting Level {W},Lights/Floor Area {W/m2},Lights per person {W/person},Fraction Return Air,Fraction Radiant,Fraction Short Wave,Fraction Convected,Fraction Replaceable,End-Use Category,Nominal Minimum Lighting Level {W},Nominal Maximum Lighting Level {W}
 Lights Internal Gains Nominal, F2 CORRIDOR_LIGHTS_HARDWIRED,LTG_COR_SCH,F2 CORRIDOR,77.66,0.0,662.040,8.525,N/A,0.000,0.600,0.200,0.200,1.000,LightsWired,381.914,381.914
 Lights Internal Gains Nominal, F2 N1 APARTMENT_LIGHTS_HARDWIRED,LTG_APT_SCH,F2 N1 APARTMENT,88.25,2.5,1016.394,11.517,406.558,0.000,0.600,0.200,0.200,1.000,LightsWired,11.502,184.025
 Lights Internal Gains Nominal, F2 N1 APARTMENT_LIGHTS_PLUGIN,LTG_APT_SCH,F2 N1 APARTMENT,88.25,2.5,256.473,2.906,102.589,0.000,0.600,0.200,0.200,1.000,LightsPlugIn,2.902,46.436
 Lights Internal Gains Nominal, F2 N2 APARTMENT_LIGHTS_HARDWIRED,LTG_APT_SCH,F2 N2 APARTMENT,88.25,2.5,1016.394,11.517,406.558,0.000,0.600,0.200,0.200,1.000,LightsWired,11.502,184.025
 Lights Internal Gains Nominal, F2 N2 APARTMENT_LIGHTS_PLUGIN,LTG_APT_SCH,F2 N2 APARTMENT,88.25,2.5,256.473,2.906,102.589,0.000,0.600,0.200,0.200,1.000,LightsPlugIn,2.902,46.436
 Lights Internal Gains Nominal, F2 NE APARTMENT_LIGHTS_HARDWIRED,LTG_APT_SCH,F2 NE APARTMENT,88.25,2.5,1016.394,11.517,406.558,0.000,0.600,0.200,0.200,1.000,LightsWired,11.502,184.025
 Lights Internal Gains Nominal, F2 NE APARTMENT_LIGHTS_PLUGIN,LTG_APT_SCH,F2 NE APARTMENT,88.25,2.5,256.473,2.906,102.589,0.000,0.600,0.200,0.200,1.000,LightsPlugIn,2.902,46.436
 Lights Internal Gains Nominal, F2 NW APARTMENT_LIGHTS_HARDWIRED,LTG_APT_SCH,F2 NW APARTMENT,88.25,2.5,1016.394,11.517,406.558,0.000,0.600,0.200,0.200,1.000,LightsWired,11.502,184.025
 Lights Internal Gains Nominal, F2 NW APARTMENT_LIGHTS_PLUGIN,LTG_APT_SCH,F2 NW APARTMENT,88.25,2.5,256.473,2.906,102.589,0.000,0.600,0.200,0.200,1.000,LightsPlugIn,2.902,46.436
 Lights Internal Gains Nominal, F2 S1 APARTMENT_LIGHTS_HARDWIRED,LTG_APT_SCH,F2 S1 APARTMENT,88.25,2.5,1016.394,11.517,406.558,0.000,0.600,0.200,0.200,1.000,LightsWired,11.502,184.025
 Lights Internal Gains Nominal, F2 S1 APARTMENT_LIGHTS_PLUGIN,LTG_APT_SCH,F2 S1 APARTMENT,88.25,2.5,256.473,2.906,102.589,0.000,0.600,0.200,0.200,1.000,LightsPlugIn,2.902,46.436
 Lights Internal Gains Nominal, F2 S2 APARTMENT_LIGHTS_HARDWIRED,LTG_APT_SCH,F2 S2 APARTMENT,88.25,2.5,1016.394,11.517,406.558,0.000,0.600,0.200,0.200,1.000,LightsWired,11.502,184.025
 Lights Internal Gains Nominal, F2 S2 APARTMENT_LIGHTS_PLUGIN,LTG_APT_SCH,F2 S2 APARTMENT,88.25,2.5,256.473,2.906,102.589,0.000,0.600,0.200,0.200,1.000,LightsPlugIn,2.902,46.436
 Lights Internal Gains Nominal, F2 SE APARTMENT_LIGHTS_HARDWIRED,LTG_APT_SCH,F2 SE APARTMENT,88.25,2.5,1016.394,11.517,406.558,0.000,0.600,0.200,0.200,1.000,LightsWired,11.502,184.025
 Lights Internal Gains Nominal, F2 SE APARTMENT_LIGHTS_PLUGIN,LTG_APT_SCH,F2 SE APARTMENT,88.25,2.5,256.473,2.906,102.589,0.000,0.600,0.200,0.200,1.000,LightsPlugIn,2.902,46.436
 Lights Internal Gains Nominal, F2 SW APARTMENT_LIGHTS_HARDWIRED,LTG_APT_SCH,F2 SW APARTMENT,88.25,2.5,1016.394,11.517,406.558,0.000,0.600,0.200,0.200,1.000,LightsWired,11.502,184.025
 Lights Internal Gains Nominal, F2 SW APARTMENT_LIGHTS_PLUGIN,LTG_APT_SCH,F2 SW APARTMENT,88.25,2.5,256.473,2.906,102.589,0.000,0.600,0.200,0.200,1.000,LightsPlugIn,2.902,46.436
 Lights Internal Gains Nominal, F3 CORRIDOR_LIGHTS_HARDWIRED,LTG_COR_SCH,F3 CORRIDOR,77.66,0.0,662.040,8.525,N/A,0.000,0.600,0.200,0.200,1.000,LightsWired,381.914,381.914
 Lights Internal Gains Nominal, F3 N1 APARTMENT_LIGHTS_HARDWIRED,LTG_APT_SCH,F3 N1 APARTMENT,88.25,2.5,1016.394,11.517,406.558,0.000,0.600,0.200,0.200,1.000,LightsWired,11.502,184.025
 Lights Internal Gains Nominal, F3 N1 APARTMENT_LIGHTS_PLUGIN,LTG_APT_SCH,F3 N1 APARTMENT,88.25,2.5,256.473,2.906,102.589,0.000,0.600,0.200,0.200,1.000,LightsPlugIn,2.902,46.436
 Lights Internal Gains Nominal, F3 N2 APARTMENT_LIGHTS_HARDWIRED,LTG_APT_SCH,F3 N2 APARTMENT,88.25,2.5,1016.394,11.517,406.558,0.000,0.600,0.200,0.200,1.000,LightsWired,11.502,184.025
 Lights Internal Gains Nominal, F3 N2 APARTMENT_LIGHTS_PLUGIN,LTG_APT_SCH,F3 N2 APARTMENT,88.25,2.5,256.473,2.906,102.589,0.000,0.600,0.200,0.200,1.000,LightsPlugIn,2.902,46.436
 Lights Internal Gains Nominal, F3 NE APARTMENT_LIGHTS_HARDWIRED,LTG_APT_SCH,F3 NE APARTMENT,88.25,2.5,1016.394,11.517,406.558,0.000,0.600,0.200,0.200,1.000,LightsWired,11.502,184.025
 Lights Internal Gains Nominal, F3 NE APARTMENT_LIGHTS_PLUGIN,LTG_APT_SCH,F3 NE APARTMENT,88.25,2.5,256.473,2.906,102.589,0.000,0.600,0.200,0.200,1.000,LightsPlugIn,2.902,46.436
 Lights Internal Gains Nominal, F3 NW APARTMENT_LIGHTS_HARDWIRED,LTG_APT_SCH,F3 NW APARTMENT,88.25,2.5,1016.394,11.517,406.558,0.000,0.600,0.200,0.200,1.000,LightsWired,11.502,184.025
 Lights Internal Gains Nominal, F3 NW APARTMENT_LIGHTS_PLUGIN,LTG_APT_SCH,F3 NW APARTMENT,88.25,2.5,256.473,2.906,102.589,0.000,0.600,0.200,0.200,1.000,LightsPlugIn,2.902,46.436
 Lights Internal Gains Nominal, F3 S1 APARTMENT_LIGHTS_HARDWIRED,LTG_APT_SCH,F3 S1 APARTMENT,88.25,2.5,1016.394,11.517,406.558,0.000,0.600,0.200,0.200,1.000,LightsWired,11.502,184.025
 Lights Internal Gains Nominal, F3 S1 APARTMENT_LIGHTS_PLUGIN,LTG_APT_SCH,F3 S1 APARTMENT,88.25,2.5,256.473,2.906,102.589,0.000,0.600,0.200,0.200,1.000,LightsPlugIn,2.902,46.436
 Lights Internal Gains Nominal, F3 S2 APARTMENT_LIGHTS_HARDWIRED,LTG_APT_SCH,F3 S2 APARTMENT,88.25,2.5,1016.394,11.517,406.558,0.000,0.600,0.200,0.200,1.000,LightsWired,11.502,184.025
 Lights Internal Gains Nominal, F3 S2 APARTMENT_LIGHTS_PLUGIN,LTG_APT_SCH,F3 S2 APARTMENT,88.25,2.5,256.473,2.906,102.589,0.000,0.600,0.200,0.200,1.000,LightsPlugIn,2.902,46.436
 Lights Internal Gains Nominal, F3 SE APARTMENT_LIGHTS_HARDWIRED,LTG_APT_SCH,F3 SE APARTMENT,88.25,2.5,1016.394,11.517,406.558,0.000,0.600,0.200,0.200,1.000,LightsWired,11.502,184.025
 Lights Internal Gains Nominal, F3 SE APARTMENT_LIGHTS_PLUGIN,LTG_APT_SCH,F3 SE APARTMENT,88.25,2.5,256.473,2.906,102.589,0.000,0.600,0.200,0.200,1.000,LightsPlugIn,2.902,46.436
 Lights Internal Gains Nominal, F3 SW APARTMENT_LIGHTS_HARDWIRED,LTG_APT_SCH,F3 SW APARTMENT,88.25,2.5,1016.394,11.517,406.558,0.000,0.600,0.200,0.200,1.000,LightsWired,11.502,184.025
 Lights Internal Gains Nominal, F3 SW APARTMENT_LIGHTS_PLUGIN,LTG_APT_SCH,F3 SW APARTMENT,88.25,2.5,256.473,2.906,102.589,0.000,0.600,0.200,0.200,1.000,LightsPlugIn,2.902,46.436
 Lights Internal Gains Nominal, F4 CORRIDOR_LIGHTS_HARDWIRED,LTG_COR_SCH,F4 CORRIDOR,77.66,0.0,662.040,8.525,N/A,0.000,0.600,0.200,0.200,1.000,LightsWired,381.914,381.914
 Lights Internal Gains Nominal, F4 N1 APARTMENT_LIGHTS_HARDWIRED,LTG_APT_SCH,F4 N1 APARTMENT,88.25,2.5,1016.394,11.517,406.558,0.000,0.600,0.200,0.200,1.000,LightsWired,11.502,184.025
 Lights Internal Gains Nominal, F4 N1 APARTMENT_LIGHTS_PLUGIN,LTG_APT_SCH,F4 N1 APARTMENT,88.25,2.5,256.473,2.906,102.589,0.000,0.600,0.200,0.200,1.000,LightsPlugIn,2.902,46.436
 Lights Internal Gains Nominal, F4 N2 APARTMENT_LIGHTS_HARDWIRED,LTG_APT_SCH,F4 N2 APARTMENT,88.25,2.5,1016.394,11.517,406.558,0.000,0.600,0.200,0.200,1.000,LightsWired,11.502,184.025
 Lights Internal Gains Nominal, F4 N2 APARTMENT_LIGHTS_PLUGIN,LTG_APT_SCH,F4 N2 APARTMENT,88.25,2.5,256.473,2.906,102.589,0.000,0.600,0.200,0.200,1.000,LightsPlugIn,2.902,46.436
 Lights Internal Gains Nominal, F4 NE APARTMENT_LIGHTS_HARDWIRED,LTG_APT_SCH,F4 NE APARTMENT,88.25,2.5,1016.394,11.517,406.558,0.000,0.600,0.200,0.200,1.000,LightsWired,11.502,184.025
 Lights Internal Gains Nominal, F4 NE APARTMENT_LIGHTS_PLUGIN,LTG_APT_SCH,F4 NE APARTMENT,88.25,2.5,256.473,2.906,102.589,0.000,0.600,0.200,0.200,1.000,LightsPlugIn,2.902,46.436
 Lights Internal Gains Nominal, F4 NW APARTMENT_LIGHTS_HARDWIRED,LTG_APT_SCH,F4 NW APARTMENT,88.25,2.5,1016.394,11.517,406.558,0.000,0.600,0.200,0.200,1.000,LightsWired,11.502,184.025
 Lights Internal Gains Nominal, F4 NW APARTMENT_LIGHTS_PLUGIN,LTG_APT_SCH,F4 NW APARTMENT,88.25,2.5,256.473,2.906,102.589,0.000,0.600,0.200,0.200,1.000,LightsPlugIn,2.902,46.436
 Lights Internal Gains Nominal, F4 S1 APARTMENT_LIGHTS_HARDWIRED,LTG_APT_SCH,F4 S1 APARTMENT,88.25,2.5,1016.394,11.517,406.558,0.000,0.600,0.200,0.200,1.000,LightsWired,11.502,184.025
 Lights Internal Gains Nominal, F4 S1 APARTMENT_LIGHTS_PLUGIN,LTG_APT_SCH,F4 S1 APARTMENT,88.25,2.5,256.473,2.906,102.589,0.000,0.600,0.200,0.200,1.000,LightsPlugIn,2.902,46.436
 Lights Internal Gains Nominal, F4 S2 APARTMENT_LIGHTS_HARDWIRED,LTG_APT_SCH,F4 S2 APARTMENT,88.25,2.5,1016.394,11.517,406.558,0.000,0.600,0.200,0.200,1.000,LightsWired,11.502,184.025
 Lights Internal Gains Nominal, F4 S2 APARTMENT_LIGHTS_PLUGIN,LTG_APT_SCH,F4 S2 APARTMENT,88.25,2.5,256.473,2.906,102.589,0.000,0.600,0.200,0.200,1.000,LightsPlugIn,2.902,46.436
 Lights Internal Gains Nominal, F4 SE APARTMENT_LIGHTS_HARDWIRED,LTG_APT_SCH,F4 SE APARTMENT,88.25,2.5,1016.394,11.517,406.558,0.000,0.600,0.200,0.200,1.000,LightsWired,11.502,184.025
 Lights Internal Gains Nominal, F4 SE APARTMENT_LIGHTS_PLUGIN,LTG_APT_SCH,F4 SE APARTMENT,88.25,2.5,256.473,2.906,102.589,0.000,0.600,0.200,0.200,1.000,LightsPlugIn,2.902,46.436
 Lights Internal Gains Nominal, F4 SW APARTMENT_LIGHTS_HARDWIRED,LTG_APT_SCH,F4 SW APARTMENT,88.25,2.5,1016.394,11.517,406.558,0.000,0.600,0.200,0.200,1.000,LightsWired,11.502,184.025
 Lights Internal Gains Nominal, F4 SW APARTMENT_LIGHTS_PLUGIN,LTG_APT_SCH,F4 SW APARTMENT,88.25,2.5,256.473,2.906,102.589,0.000,0.600,0.200,0.200,1.000,LightsPlugIn,2.902,46.436
 Lights Internal Gains Nominal, F6 CORRIDOR_LIGHTS_HARDWIRED,LTG_COR_SCH,F6 CORRIDOR,77.66,0.0,662.040,8.525,N/A,0.000,0.600,0.200,0.200,1.000,LightsWired,381.914,381.914
 Lights Internal Gains Nominal, F6 N1 APARTMENT_LIGHTS_HARDWIRED,LTG_APT_SCH,F6 N1 APARTMENT,88.25,2.5,1016.394,11.517,406.558,0.000,0.600,0.200,0.200,1.000,LightsWired,11.502,184.025
 Lights Internal Gains Nominal, F6 N1 APARTMENT_LIGHTS_PLUGIN,LTG_APT_SCH,F6 N1 APARTMENT,88.25,2.5,256.473,2.906,102.589,0.000,0.600,0.200,0.200,1.000,LightsPlugIn,2.902,46.436
 Lights Internal Gains Nominal, F6 N2 APARTMENT_LIGHTS_HARDWIRED,LTG_APT_SCH,F6 N2 APARTMENT,88.25,2.5,1016.394,11.517,406.558,0.000,0.600,0.200,0.200,1.000,LightsWired,11.502,184.025
 Lights Internal Gains Nominal, F6 N2 APARTMENT_LIGHTS_PLUGIN,LTG_APT_SCH,F6 N2 APARTMENT,88.25,2.5,256.473,2.906,102.589,0.000,0.600,0.200,0.200,1.000,LightsPlugIn,2.902,46.436
 Lights Internal Gains Nominal, F6 NE APARTMENT_LIGHTS_HARDWIRED,LTG_APT_SCH,F6 NE APARTMENT,88.25,2.5,1016.394,11.517,406.558,0.000,0.600,0.200,0.200,1.000,LightsWired,11.502,184.025
 Lights Internal Gains Nominal, F6 NE APARTMENT_LIGHTS_PLUGIN,LTG_APT_SCH,F6 NE APARTMENT,88.25,2.5,256.473,2.906,102.589,0.000,0.600,0.200,0.200,1.000,LightsPlugIn,2.902,46.436
 Lights Internal Gains Nominal, F6 NW APARTMENT_LIGHTS_HARDWIRED,LTG_APT_SCH,F6 NW APARTMENT,88.25,2.5,1016.394,11.517,406.558,0.000,0.600,0.200,0.200,1.000,LightsWired,11.502,184.025
 Lights Internal Gains Nominal, F6 NW APARTMENT_LIGHTS_PLUGIN,LTG_APT_SCH,F6 NW APARTMENT,88.25,2.5,256.473,2.906,102.589,0.000,0.600,0.200,0.200,1.000,LightsPlugIn,2.902,46.436
 Lights Internal Gains Nominal, F6 S1 APARTMENT_LIGHTS_HARDWIRED,LTG_APT_SCH,F6 S1 APARTMENT,88.25,2.5,1016.394,11.517,406.558,0.000,0.600,0.200,0.200,1.000,LightsWired,11.502,184.025
 Lights Internal Gains Nominal, F6 S1 APARTMENT_LIGHTS_PLUGIN,LTG_APT_SCH,F6 S1 APARTMENT,88.25,2.5,256.473,2.906,102.589,0.000,0.600,0.200,0.200,1.000,LightsPlugIn,2.902,46.436
 Lights Internal Gains Nominal, F6 S2 APARTMENT_LIGHTS_HARDWIRED,LTG_APT_SCH,F6 S2 APARTMENT,88.25,2.5,1016.394,11.517,406.558,0.000,0.600,0.200,0.200,1.000,LightsWired,11.502,184.025
 Lights Internal Gains Nominal, F6 S2 APARTMENT_LIGHTS_PLUGIN,LTG_APT_SCH,F6 S2 APARTMENT,88.25,2.5,256.473,2.906,102.589,0.000,0.600,0.200,0.200,1.000,LightsPlugIn,2.902,46.436
 Lights Internal Gains Nominal, F6 SE APARTMENT_LIGHTS_HARDWIRED,LTG_APT_SCH,F6 SE APARTMENT,88.25,2.5,1016.394,11.517,406.558,0.000,0.600,0.200,0.200,1.000,LightsWired,11.502,184.025
 Lights Internal Gains Nominal, F6 SE APARTMENT_LIGHTS_PLUGIN,LTG_APT_SCH,F6 SE APARTMENT,88.25,2.5,256.473,2.906,102.589,0.000,0.600,0.200,0.200,1.000,LightsPlugIn,2.902,46.436
 Lights Internal Gains Nominal, F6 SW APARTMENT_LIGHTS_HARDWIRED,LTG_APT_SCH,F6 SW APARTMENT,88.25,2.5,1016.394,11.517,406.558,0.000,0.600,0.200,0.200,1.000,LightsWired,11.502,184.025
 Lights Internal Gains Nominal, F6 SW APARTMENT_LIGHTS_PLUGIN,LTG_APT_SCH,F6 SW APARTMENT,88.25,2.5,256.473,2.906,102.589,0.000,0.600,0.200,0.200,1.000,LightsPlugIn,2.902,46.436
 Lights Internal Gains Nominal, F7 CORRIDOR_LIGHTS_HARDWIRED,LTG_COR_SCH,F7 CORRIDOR,77.66,0.0,662.040,8.525,N/A,0.000,0.600,0.200,0.200,1.000,LightsWired,381.914,381.914
 Lights Internal Gains Nominal, F7 N1 APARTMENT_LIGHTS_HARDWIRED,LTG_APT_SCH,F7 N1 APARTMENT,88.25,2.5,1016.394,11.517,406.558,0.000,0.600,0.200,0.200,1.000,LightsWired,11.502,184.025
 Lights Internal Gains Nominal, F7 N1 APARTMENT_LIGHTS_PLUGIN,LTG_APT_SCH,F7 N1 APARTMENT,88.25,2.5,256.473,2.906,102.589,0.000,0.600,0.200,0.200,1.000,LightsPlugIn,2.902,46.436
 Lights Internal Gains Nominal, F7 N2 APARTMENT_LIGHTS_HARDWIRED,LTG_APT_SCH,F7 N2 APARTMENT,88.25,2.5,1016.394,11.517,406.558,0.000,0.600,0.200,0.200,1.000,LightsWired,11.502,184.025
 Lights Internal Gains Nominal, F7 N2 APARTMENT_LIGHTS_PLUGIN,LTG_APT_SCH,F7 N2 APARTMENT,88.25,2.5,256.473,2.906,102.589,0.000,0.600,0.200,0.200,1.000,LightsPlugIn,2.902,46.436
 Lights Internal Gains Nominal, F7 NE APARTMENT_LIGHTS_HARDWIRED,LTG_APT_SCH,F7 NE APARTMENT,88.25,2.5,1016.394,11.517,406.558,0.000,0.600,0.200,0.200,1.000,LightsWired,11.502,184.025
 Lights Internal Gains Nominal, F7 NE APARTMENT_LIGHTS_PLUGIN,LTG_APT_SCH,F7 NE APARTMENT,88.25,2.5,256.473,2.906,102.589,0.000,0.600,0.200,0.200,1.000,LightsPlugIn,2.902,46.436
 Lights Internal Gains Nominal, F7 NW APARTMENT_LIGHTS_HARDWIRED,LTG_APT_SCH,F7 NW APARTMENT,88.25,2.5,1016.394,11.517,406.558,0.000,0.600,0.200,0.200,1.000,LightsWired,11.502,184.025
 Lights Internal Gains Nominal, F7 NW APARTMENT_LIGHTS_PLUGIN,LTG_APT_SCH,F7 NW APARTMENT,88.25,2.5,256.473,2.906,102.589,0.000,0.600,0.200,0.200,1.000,LightsPlugIn,2.902,46.436
 Lights Internal Gains Nominal, F7 S1 APARTMENT_LIGHTS_HARDWIRED,LTG_APT_SCH,F7 S1 APARTMENT,88.25,2.5,1016.394,11.517,406.558,0.000,0.600,0.200,0.200,1.000,LightsWired,11.502,184.025
 Lights Internal Gains Nominal, F7 S1 APARTMENT_LIGHTS_PLUGIN,LTG_APT_SCH,F7 S1 APARTMENT,88.25,2.5,256.473,2.906,102.589,0.000,0.600,0.200,0.200,1.000,LightsPlugIn,2.902,46.436
 Lights Internal Gains Nominal, F7 S2 APARTMENT_LIGHTS_HARDWIRED,LTG_APT_SCH,F7 S2 APARTMENT,88.25,2.5,1016.394,11.517,406.558,0.000,0.600,0.200,0.200,1.000,LightsWired,11.502,184.025
 Lights Internal Gains Nominal, F7 S2 APARTMENT_LIGHTS_PLUGIN,LTG_APT_SCH,F7 S2 APARTMENT,88.25,2.5,256.473,2.906,102.589,0.000,0.600,0.200,0.200,1.000,LightsPlugIn,2.902,46.436
 Lights Internal Gains Nominal, F7 SE APARTMENT_LIGHTS_HARDWIRED,LTG_APT_SCH,F7 SE APARTMENT,88.25,2.5,1016.394,11.517,406.558,0.000,0.600,0.200,0.200,1.000,LightsWired,11.502,184.025
 Lights Internal Gains Nominal, F7 SE APARTMENT_LIGHTS_PLUGIN,LTG_APT_SCH,F7 SE APARTMENT,88.25,2.5,256.473,2.906,102.589,0.000,0.600,0.200,0.200,1.000,LightsPlugIn,2.902,46.436
 Lights Internal Gains Nominal, F7 SW APARTMENT_LIGHTS_HARDWIRED,LTG_APT_SCH,F7 SW APARTMENT,88.25,2.5,1016.394,11.517,406.558,0.000,0.600,0.200,0.200,1.000,LightsWired,11.502,184.025
 Lights Internal Gains Nominal, F7 SW APARTMENT_LIGHTS_PLUGIN,LTG_APT_SCH,F7 SW APARTMENT,88.25,2.5,256.473,2.906,102.589,0.000,0.600,0.200,0.200,1.000,LightsPlugIn,2.902,46.436
 Lights Internal Gains Nominal, F8 CORRIDOR_LIGHTS_HARDWIRED,LTG_COR_SCH,F8 CORRIDOR,77.66,0.0,662.040,8.525,N/A,0.000,0.600,0.200,0.200,1.000,LightsWired,381.914,381.914
 Lights Internal Gains Nominal, F8 N1 APARTMENT_LIGHTS_HARDWIRED,LTG_APT_SCH,F8 N1 APARTMENT,88.25,2.5,1016.394,11.517,406.558,0.000,0.600,0.200,0.200,1.000,LightsWired,11.502,184.025
 Lights Internal Gains Nominal, F8 N1 APARTMENT_LIGHTS_PLUGIN,LTG_APT_SCH,F8 N1 APARTMENT,88.25,2.5,256.473,2.906,102.589,0.000,0.600,0.200,0.200,1.000,LightsPlugIn,2.902,46.436
 Lights Internal Gains Nominal, F8 N2 APARTMENT_LIGHTS_HARDWIRED,LTG_APT_SCH,F8 N2 APARTMENT,88.25,2.5,1016.394,11.517,406.558,0.000,0.600,0.200,0.200,1.000,LightsWired,11.502,184.025
 Lights Internal Gains Nominal, F8 N2 APARTMENT_LIGHTS_PLUGIN,LTG_APT_SCH,F8 N2 APARTMENT,88.25,2.5,256.473,2.906,102.589,0.000,0.600,0.200,0.200,1.000,LightsPlugIn,2.902,46.436
 Lights Internal Gains Nominal, F8 NE APARTMENT_LIGHTS_HARDWIRED,LTG_APT_SCH,F8 NE APARTMENT,88.25,2.5,1016.394,11.517,406.558,0.000,0.600,0.200,0.200,1.000,LightsWired,11.502,184.025
 Lights Internal Gains Nominal, F8 NE APARTMENT_LIGHTS_PLUGIN,LTG_APT_SCH,F8 NE APARTMENT,88.25,2.5,256.473,2.906,102.589,0.000,0.600,0.200,0.200,1.000,LightsPlugIn,2.902,46.436
 Lights Internal Gains Nominal, F8 NW APARTMENT_LIGHTS_HARDWIRED,LTG_APT_SCH,F8 NW APARTMENT,88.25,2.5,1016.394,11.517,406.558,0.000,0.600,0.200,0.200,1.000,LightsWired,11.502,184.025
 Lights Internal Gains Nominal, F8 NW APARTMENT_LIGHTS_PLUGIN,LTG_APT_SCH,F8 NW APARTMENT,88.25,2.5,256.473,2.906,102.589,0.000,0.600,0.200,0.200,1.000,LightsPlugIn,2.902,46.436
 Lights Internal Gains Nominal, F8 S1 APARTMENT_LIGHTS_HARDWIRED,LTG_APT_SCH,F8 S1 APARTMENT,88.25,2.5,1016.394,11.517,406.558,0.000,0.600,0.200,0.200,1.000,LightsWired,11.502,184.025
 Lights Internal Gains Nominal, F8 S1 APARTMENT_LIGHTS_PLUGIN,LTG_APT_SCH,F8 S1 APARTMENT,88.25,2.5,256.473,2.906,102.589,0.000,0.600,0.200,0.200,1.000,LightsPlugIn,2.902,46.436
 Lights Internal Gains Nominal, F8 S2 APARTMENT_LIGHTS_HARDWIRED,LTG_APT_SCH,F8 S2 APARTMENT,88.25,2.5,1016.394,11.517,406.558,0.000,0.600,0.200,0.200,1.000,LightsWired,11.502,184.025
 Lights Internal Gains Nominal, F8 S2 APARTMENT_LIGHTS_PLUGIN,LTG_APT_SCH,F8 S2 APARTMENT,88.25,2.5,256.473,2.906,102.589,0.000,0.600,0.200,0.200,1.000,LightsPlugIn,2.902,46.436
 Lights Internal Gains Nominal, F8 SE APARTMENT_LIGHTS_HARDWIRED,LTG_APT_SCH,F8 SE APARTMENT,88.25,2.5,1016.394,11.517,406.558,0.000,0.600,0.200,0.200,1.000,LightsWired,11.502,184.025
 Lights Internal Gains Nominal, F8 SE APARTMENT_LIGHTS_PLUGIN,LTG_APT_SCH,F8 SE APARTMENT,88.25,2.5,256.473,2.906,102.589,0.000,0.600,0.200,0.200,1.000,LightsPlugIn,2.902,46.436
 Lights Internal Gains Nominal, F8 SW APARTMENT_LIGHTS_HARDWIRED,LTG_APT_SCH,F8 SW APARTMENT,88.25,2.5,1016.394,11.517,406.558,0.000,0.600,0.200,0.200,1.000,LightsWired,11.502,184.025
 Lights Internal Gains Nominal, F8 SW APARTMENT_LIGHTS_PLUGIN,LTG_APT_SCH,F8 SW APARTMENT,88.25,2.5,256.473,2.906,102.589,0.000,0.600,0.200,0.200,1.000,LightsPlugIn,2.902,46.436
 Lights Internal Gains Nominal, F9 CORRIDOR_LIGHTS_HARDWIRED,LTG_COR_SCH,F9 CORRIDOR,77.66,0.0,662.040,8.525,N/A,0.000,0.600,0.200,0.200,1.000,LightsWired,381.914,381.914
 Lights Internal Gains Nominal, F9 N1 APARTMENT_LIGHTS_HARDWIRED,LTG_APT_SCH,F9 N1 APARTMENT,88.25,2.5,1016.394,11.517,406.558,0.000,0.600,0.200,0.200,1.000,LightsWired,11.502,184.025
 Lights Internal Gains Nominal, F9 N1 APARTMENT_LIGHTS_PLUGIN,LTG_APT_SCH,F9 N1 APARTMENT,88.25,2.5,256.473,2.906,102.589,0.000,0.600,0.200,0.200,1.000,LightsPlugIn,2.902,46.436
 Lights Internal Gains Nominal, F9 N2 APARTMENT_LIGHTS_HARDWIRED,LTG_APT_SCH,F9 N2 APARTMENT,88.25,2.5,1016.394,11.517,406.558,0.000,0.600,0.200,0.200,1.000,LightsWired,11.502,184.025
 Lights Internal Gains Nominal, F9 N2 APARTMENT_LIGHTS_PLUGIN,LTG_APT_SCH,F9 N2 APARTMENT,88.25,2.5,256.473,2.906,102.589,0.000,0.600,0.200,0.200,1.000,LightsPlugIn,2.902,46.436
 Lights Internal Gains Nominal, F9 NE APARTMENT_LIGHTS_HARDWIRED,LTG_APT_SCH,F9 NE APARTMENT,88.25,2.5,1016.394,11.517,406.558,0.000,0.600,0.200,0.200,1.000,LightsWired,11.502,184.025
 Lights Internal Gains Nominal, F9 NE APARTMENT_LIGHTS_PLUGIN,LTG_APT_SCH,F9 NE APARTMENT,88.25,2.5,256.473,2.906,102.589,0.000,0.600,0.200,0.200,1.000,LightsPlugIn,2.902,46.436
 Lights Internal Gains Nominal, F9 NW APARTMENT_LIGHTS_HARDWIRED,LTG_APT_SCH,F9 NW APARTMENT,88.25,2.5,1016.394,11.517,406.558,0.000,0.600,0.200,0.200,1.000,LightsWired,11.502,184.025
 Lights Internal Gains Nominal, F9 NW APARTMENT_LIGHTS_PLUGIN,LTG_APT_SCH,F9 NW APARTMENT,88.25,2.5,256.473,2.906,102.589,0.000,0.600,0.200,0.200,1.000,LightsPlugIn,2.902,46.436
 Lights Internal Gains Nominal, F9 S1 APARTMENT_LIGHTS_HARDWIRED,LTG_APT_SCH,F9 S1 APARTMENT,88.25,2.5,1016.394,11.517,406.558,0.000,0.600,0.200,0.200,1.000,LightsWired,11.502,184.025
 Lights Internal Gains Nominal, F9 S1 APARTMENT_LIGHTS_PLUGIN,LTG_APT_SCH,F9 S1 APARTMENT,88.25,2.5,256.473,2.906,102.589,0.000,0.600,0.200,0.200,1.000,LightsPlugIn,2.902,46.436
 Lights Internal Gains Nominal, F9 S2 APARTMENT_LIGHTS_HARDWIRED,LTG_APT_SCH,F9 S2 APARTMENT,88.25,2.5,1016.394,11.517,406.558,0.000,0.600,0.200,0.200,1.000,LightsWired,11.502,184.025
 Lights Internal Gains Nominal, F9 S2 APARTMENT_LIGHTS_PLUGIN,LTG_APT_SCH,F9 S2 APARTMENT,88.25,2.5,256.473,2.906,102.589,0.000,0.600,0.200,0.200,1.000,LightsPlugIn,2.902,46.436
 Lights Internal Gains Nominal, F9 SE APARTMENT_LIGHTS_HARDWIRED,LTG_APT_SCH,F9 SE APARTMENT,88.25,2.5,1016.394,11.517,406.558,0.000,0.600,0.200,0.200,1.000,LightsWired,11.502,184.025
 Lights Internal Gains Nominal, F9 SE APARTMENT_LIGHTS_PLUGIN,LTG_APT_SCH,F9 SE APARTMENT,88.25,2.5,256.473,2.906,102.589,0.000,0.600,0.200,0.200,1.000,LightsPlugIn,2.902,46.436
 Lights Internal Gains Nominal, F9 SW APARTMENT_LIGHTS_HARDWIRED,LTG_APT_SCH,F9 SW APARTMENT,88.25,2.5,1016.394,11.517,406.558,0.000,0.600,0.200,0.200,1.000,LightsWired,11.502,184.025
 Lights Internal Gains Nominal, F9 SW APARTMENT_LIGHTS_PLUGIN,LTG_APT_SCH,F9 SW APARTMENT,88.25,2.5,256.473,2.906,102.589,0.000,0.600,0.200,0.200,1.000,LightsPlugIn,2.902,46.436
 Lights Internal Gains Nominal, G CORRIDOR_LIGHTS_HARDWIRED,LTG_COR_SCH,G CORRIDOR,77.66,0.0,662.040,8.525,N/A,0.000,0.600,0.200,0.200,1.000,LightsWired,381.914,381.914
 Lights Internal Gains Nominal, G N1 APARTMENT_LIGHTS_HARDWIRED,LTG_APT_SCH,G N1 APARTMENT,88.25,2.5,1016.394,11.517,406.558,0.000,0.600,0.200,0.200,1.000,LightsWired,11.502,184.025
 Lights Internal Gains Nominal, G N1 APARTMENT_LIGHTS_PLUGIN,LTG_APT_SCH,G N1 APARTMENT,88.25,2.5,256.473,2.906,102.589,0.000,0.600,0.200,0.200,1.000,LightsPlugIn,2.902,46.436
 Lights Internal Gains Nominal, G N2 APARTMENT_LIGHTS_HARDWIRED,LTG_APT_SCH,G N2 APARTMENT,88.25,2.5,1016.394,11.517,406.558,0.000,0.600,0.200,0.200,1.000,LightsWired,11.502,184.025
 Lights Internal Gains Nominal, G N2 APARTMENT_LIGHTS_PLUGIN,LTG_APT_SCH,G N2 APARTMENT,88.25,2.5,256.473,2.906,102.589,0.000,0.600,0.200,0.200,1.000,LightsPlugIn,2.902,46.436
 Lights Internal Gains Nominal, G NE APARTMENT_LIGHTS_HARDWIRED,LTG_APT_SCH,G NE APARTMENT,88.25,2.5,1016.394,11.517,406.558,0.000,0.600,0.200,0.200,1.000,LightsWired,11.502,184.025
 Lights Internal Gains Nominal, G NE APARTMENT_LIGHTS_PLUGIN,LTG_APT_SCH,G NE APARTMENT,88.25,2.5,256.473,2.906,102.589,0.000,0.600,0.200,0.200,1.000,LightsPlugIn,2.902,46.436
 Lights Internal Gains Nominal, G NW APARTMENT_LIGHTS_HARDWIRED,LTG_APT_SCH,G NW APARTMENT,88.25,2.5,1016.394,11.517,406.558,0.000,0.600,0.200,0.200,1.000,LightsWired,11.502,184.025
 Lights Internal Gains Nominal, G NW APARTMENT_LIGHTS_PLUGIN,LTG_APT_SCH,G NW APARTMENT,88.25,2.5,256.473,2.906,102.589,0.000,0.600,0.200,0.200,1.000,LightsPlugIn,2.902,46.436
 Lights Internal Gains Nominal, G S1 APARTMENT_LIGHTS_HARDWIRED,LTG_APT_SCH,G S1 APARTMENT,88.25,2.5,1016.394,11.517,406.558,0.000,0.600,0.200,0.200,1.000,LightsWired,11.502,184.025
 Lights Internal Gains Nominal, G S1 APARTMENT_LIGHTS_PLUGIN,LTG_APT_SCH,G S1 APARTMENT,88.25,2.5,256.473,2.906,102.589,0.000,0.600,0.200,0.200,1.000,LightsPlugIn,2.902,46.436
 Lights Internal Gains Nominal, G S2 APARTMENT_LIGHTS_HARDWIRED,LTG_APT_SCH,G S2 APARTMENT,88.25,2.5,1016.394,11.517,406.558,0.000,0.600,0.200,0.200,1.000,LightsWired,11.502,184.025
 Lights Internal Gains Nominal, G S2 APARTMENT_LIGHTS_PLUGIN,LTG_APT_SCH,G S2 APARTMENT,88.25,2.5,256.473,2.906,102.589,0.000,0.600,0.200,0.200,1.000,LightsPlugIn,2.902,46.436
 Lights Internal Gains Nominal, G SW APARTMENT_LIGHTS_HARDWIRED,LTG_APT_SCH,G SW APARTMENT,88.25,2.5,1016.394,11.517,406.558,0.000,0.600,0.200,0.200,1.000,LightsWired,11.502,184.025
 Lights Internal Gains Nominal, G SW APARTMENT_LIGHTS_PLUGIN,LTG_APT_SCH,G SW APARTMENT,88.25,2.5,256.473,2.906,102.589,0.000,0.600,0.200,0.200,1.000,LightsPlugIn,2.902,46.436
 Lights Internal Gains Nominal, M CORRIDOR_LIGHTS_HARDWIRED,LTG_COR_SCH,M CORRIDOR,77.66,0.0,662.040,8.525,N/A,0.000,0.600,0.200,0.200,1.000,LightsWired,381.914,381.914
 Lights Internal Gains Nominal, M N1 APARTMENT_LIGHTS_HARDWIRED,LTG_APT_SCH,M N1 APARTMENT,88.25,2.5,1016.394,11.517,406.558,0.000,0.600,0.200,0.200,1.000,LightsWired,11.502,184.025
 Lights Internal Gains Nominal, M N1 APARTMENT_LIGHTS_PLUGIN,LTG_APT_SCH,M N1 APARTMENT,88.25,2.5,256.473,2.906,102.589,0.000,0.600,0.200,0.200,1.000,LightsPlugIn,2.902,46.436
 Lights Internal Gains Nominal, M N2 APARTMENT_LIGHTS_HARDWIRED,LTG_APT_SCH,M N2 APARTMENT,88.25,2.5,1016.394,11.517,406.558,0.000,0.600,0.200,0.200,1.000,LightsWired,11.502,184.025
 Lights Internal Gains Nominal, M N2 APARTMENT_LIGHTS_PLUGIN,LTG_APT_SCH,M N2 APARTMENT,88.25,2.5,256.473,2.906,102.589,0.000,0.600,0.200,0.200,1.000,LightsPlugIn,2.902,46.436
 Lights Internal Gains Nominal, M NE APARTMENT_LIGHTS_HARDWIRED,LTG_APT_SCH,M NE APARTMENT,88.25,2.5,1016.394,11.517,406.558,0.000,0.600,0.200,0.200,1.000,LightsWired,11.502,184.025
 Lights Internal Gains Nominal, M NE APARTMENT_LIGHTS_PLUGIN,LTG_APT_SCH,M NE APARTMENT,88.25,2.5,256.473,2.906,102.589,0.000,0.600,0.200,0.200,1.000,LightsPlugIn,2.902,46.436
 Lights Internal Gains Nominal, M NW APARTMENT_LIGHTS_HARDWIRED,LTG_APT_SCH,M NW APARTMENT,88.25,2.5,1016.394,11.517,406.558,0.000,0.600,0.200,0.200,1.000,LightsWired,11.502,184.025
 Lights Internal Gains Nominal, M NW APARTMENT_LIGHTS_PLUGIN,LTG_APT_SCH,M NW APARTMENT,88.25,2.5,256.473,2.906,102.589,0.000,0.600,0.200,0.200,1.000,LightsPlugIn,2.902,46.436
 Lights Internal Gains Nominal, M S1 APARTMENT_LIGHTS_HARDWIRED,LTG_APT_SCH,M S1 APARTMENT,88.25,2.5,1016.394,11.517,406.558,0.000,0.600,0.200,0.200,1.000,LightsWired,11.502,184.025
 Lights Internal Gains Nominal, M S1 APARTMENT_LIGHTS_PLUGIN,LTG_APT_SCH,M S1 APARTMENT,88.25,2.5,256.473,2.906,102.589,0.000,0.600,0.200,0.200,1.000,LightsPlugIn,2.902,46.436
 Lights Internal Gains Nominal, M S2 APARTMENT_LIGHTS_HARDWIRED,LTG_APT_SCH,M S2 APARTMENT,88.25,2.5,1016.394,11.517,406.558,0.000,0.600,0.200,0.200,1.000,LightsWired,11.502,184.025
 Lights Internal Gains Nominal, M S2 APARTMENT_LIGHTS_PLUGIN,LTG_APT_SCH,M S2 APARTMENT,88.25,2.5,256.473,2.906,102.589,0.000,0.600,0.200,0.200,1.000,LightsPlugIn,2.902,46.436
 Lights Internal Gains Nominal, M SE APARTMENT_LIGHTS_HARDWIRED,LTG_APT_SCH,M SE APARTMENT,88.25,2.5,1016.394,11.517,406.558,0.000,0.600,0.200,0.200,1.000,LightsWired,11.502,184.025
 Lights Internal Gains Nominal, M SE APARTMENT_LIGHTS_PLUGIN,LTG_APT_SCH,M SE APARTMENT,88.25,2.5,256.473,2.906,102.589,0.000,0.600,0.200,0.200,1.000,LightsPlugIn,2.902,46.436
 Lights Internal Gains Nominal, M SW APARTMENT_LIGHTS_HARDWIRED,LTG_APT_SCH,M SW APARTMENT,88.25,2.5,1016.394,11.517,406.558,0.000,0.600,0.200,0.200,1.000,LightsWired,11.502,184.025
 Lights Internal Gains Nominal, M SW APARTMENT_LIGHTS_PLUGIN,LTG_APT_SCH,M SW APARTMENT,88.25,2.5,256.473,2.906,102.589,0.000,0.600,0.200,0.200,1.000,LightsPlugIn,2.902,46.436
 Lights Internal Gains Nominal, OFFICE_LIGHTS_HARDWIRED,LTG_OFF_SCH,OFFICE,88.25,1.0,1054.390,11.948,1054.390,0.000,0.600,0.200,0.200,1.000,LightsWired,0.000,1054.390
 Lights Internal Gains Nominal, T CORRIDOR_LIGHTS_HARDWIRED,LTG_COR_SCH,T CORRIDOR,77.66,0.0,662.040,8.525,N/A,0.000,0.600,0.200,0.200,1.000,LightsWired,381.914,381.914
 Lights Internal Gains Nominal, T N1 APARTMENT_LIGHTS_HARDWIRED,LTG_APT_SCH,T N1 APARTMENT,88.25,2.5,1016.394,11.517,406.558,0.000,0.600,0.200,0.200,1.000,LightsWired,11.502,184.025
 Lights Internal Gains Nominal, T N1 APARTMENT_LIGHTS_PLUGIN,LTG_APT_SCH,T N1 APARTMENT,88.25,2.5,256.473,2.906,102.589,0.000,0.600,0.200,0.200,1.000,LightsPlugIn,2.902,46.436
 Lights Internal Gains Nominal, T N2 APARTMENT_LIGHTS_HARDWIRED,LTG_APT_SCH,T N2 APARTMENT,88.25,2.5,1016.394,11.517,406.558,0.000,0.600,0.200,0.200,1.000,LightsWired,11.502,184.025
 Lights Internal Gains Nominal, T N2 APARTMENT_LIGHTS_PLUGIN,LTG_APT_SCH,T N2 APARTMENT,88.25,2.5,256.473,2.906,102.589,0.000,0.600,0.200,0.200,1.000,LightsPlugIn,2.902,46.436
 Lights Internal Gains Nominal, T NE APARTMENT_LIGHTS_HARDWIRED,LTG_APT_SCH,T NE APARTMENT,88.25,2.5,1016.394,11.517,406.558,0.000,0.600,0.200,0.200,1.000,LightsWired,11.502,184.025
 Lights Internal Gains Nominal, T NE APARTMENT_LIGHTS_PLUGIN,LTG_APT_SCH,T NE APARTMENT,88.25,2.5,256.473,2.906,102.589,0.000,0.600,0.200,0.200,1.000,LightsPlugIn,2.902,46.436
 Lights Internal Gains Nominal, T NW APARTMENT_LIGHTS_HARDWIRED,LTG_APT_SCH,T NW APARTMENT,88.25,2.5,1016.394,11.517,406.558,0.000,0.600,0.200,0.200,1.000,LightsWired,11.502,184.025
 Lights Internal Gains Nominal, T NW APARTMENT_LIGHTS_PLUGIN,LTG_APT_SCH,T NW APARTMENT,88.25,2.5,256.473,2.906,102.589,0.000,0.600,0.200,0.200,1.000,LightsPlugIn,2.902,46.436
 Lights Internal Gains Nominal, T S1 APARTMENT_LIGHTS_HARDWIRED,LTG_APT_SCH,T S1 APARTMENT,88.25,2.5,1016.394,11.517,406.558,0.000,0.600,0.200,0.200,1.000,LightsWired,11.502,184.025
 Lights Internal Gains Nominal, T S1 APARTMENT_LIGHTS_PLUGIN,LTG_APT_SCH,T S1 APARTMENT,88.25,2.5,256.473,2.906,102.589,0.000,0.600,0.200,0.200,1.000,LightsPlugIn,2.902,46.436
 Lights Internal Gains Nominal, T S2 APARTMENT_LIGHTS_HARDWIRED,LTG_APT_SCH,T S2 APARTMENT,88.25,2.5,1016.394,11.517,406.558,0.000,0.600,0.200,0.200,1.000,LightsWired,11.502,184.025
 Lights Internal Gains Nominal, T S2 APARTMENT_LIGHTS_PLUGIN,LTG_APT_SCH,T S2 APARTMENT,88.25,2.5,256.473,2.906,102.589,0.000,0.600,0.200,0.200,1.000,LightsPlugIn,2.902,46.436
 Lights Internal Gains Nominal, T SE APARTMENT_LIGHTS_HARDWIRED,LTG_APT_SCH,T SE APARTMENT,88.25,2.5,1016.394,11.517,406.558,0.000,0.600,0.200,0.200,1.000,LightsWired,11.502,184.025
 Lights Internal Gains Nominal, T SE APARTMENT_LIGHTS_PLUGIN,LTG_APT_SCH,T SE APARTMENT,88.25,2.5,256.473,2.906,102.589,0.000,0.600,0.200,0.200,1.000,LightsPlugIn,2.902,46.436
 Lights Internal Gains Nominal, T SW APARTMENT_LIGHTS_HARDWIRED,LTG_APT_SCH,T SW APARTMENT,88.25,2.5,1016.394,11.517,406.558,0.000,0.600,0.200,0.200,1.000,LightsWired,11.502,184.025
 Lights Internal Gains Nominal, T SW APARTMENT_LIGHTS_PLUGIN,LTG_APT_SCH,T SW APARTMENT,88.25,2.5,256.473,2.906,102.589,0.000,0.600,0.200,0.200,1.000,LightsPlugIn,2.902,46.436
! <ElectricEquipment Internal Gains Nominal>,Name,Schedule Name,Zone Name,Zone Floor Area {m2},# Zone Occupants,Equipment Level {W},Equipment/Floor Area {W/m2},Equipment per person {W/person},Fraction Latent,Fraction Radiant,Fraction Lost,Fraction Convected,End-Use SubCategory,Nominal Minimum Equipment Level {W},Nominal Maximum Equipment Level {W}
 ElectricEquipment Internal Gains Nominal, ELEVATORS_LIGHTS_FAN,ELEV_LIGHT_FAN_SCH_ADD_DF,T CORRIDOR,77.66,0.0,63.000,0.811,N/A,0.000,0.000,0.950,5.000E-002,ElevatorLightsFan,3.150,31.500
 ElectricEquipment Internal Gains Nominal, F2 N1 APARTMENT_PLUG_MN1_EQUIP,EQP_APT_SCH,F2 N1 APARTMENT,88.25,2.5,588.619,6.670,235.447,0.000,0.500,0.000,0.500,MiscPlug,223.675,588.619
 ElectricEquipment Internal Gains Nominal, F2 N2 APARTMENT_PLUG_MN2_EQUIP,EQP_APT_SCH,F2 N2 APARTMENT,88.25,2.5,588.619,6.670,235.447,0.000,0.500,0.000,0.500,MiscPlug,223.675,588.619
[...]
 Component Sizing Information, AirLoopHVAC:UnitaryHeatPump:WaterToAir, AIRLOOP T SW DXAC HEAT PUMP, Nominal Heating Capacity [W], 5205.48915
 Component Sizing Information, AirLoopHVAC:UnitaryHeatPump:WaterToAir, AIRLOOP T SW DXAC HEAT PUMP, Nominal Cooling Capacity [W], 5205.48915
 Component Sizing Information, AirLoopHVAC:UnitaryHeatPump:WaterToAir, AIRLOOP T SW DXAC HEAT PUMP, Supplemental Heating Coil Nominal Capacity [W], 3020.65765
 Component Sizing Information, AirLoopHVAC:UnitaryHeatPump:WaterToAir, AIRLOOP T SW DXAC HEAT PUMP, Fraction of Supply Air Flow That Goes Through the Controlling Zone, 1.00000
 Component Sizing Information, Fan:OnOff, AIRLOOP T SW SUPPLY FAN, Design Size Maximum Flow Rate [m3/s], 0.36800
 Component Sizing Information, COIL:HEATING:WATERTOAIRHEATPUMP:EQUATIONFIT, HEAT PUMP HEATING MODE AIRLOOP T SW, Design Size Rated Air Flow Rate [m3/s], 0.36800
 Component Sizing Information, COIL:HEATING:WATERTOAIRHEATPUMP:EQUATIONFIT, HEAT PUMP HEATING MODE AIRLOOP T SW, Design Size Rated Heating Capacity [W], 5205.48915
 Component Sizing Information, COIL:HEATING:WATERTOAIRHEATPUMP:EQUATIONFIT, HEAT PUMP HEATING MODE AIRLOOP T SW, Design Size Rated Water Flow Rate [m3/s], 1.13712E-004
 Component Sizing Information, Coil:Heating:Electric, HEAT PUMP DX SUPP HEATING COIL AIRLOOP T SW, Design Size Nominal Capacity [W], 3020.65765
Water Heater Information,WaterHeater:Mixed,SHWSYS1 WATER HEATER,2.2712,175842.6,0.000,0.0000
 Component Sizing Information, PlantLoop, SHWSYS1, Maximum Loop Flow Rate [m3/s], 2.89140E-004
 Component Sizing Information, PlantLoop, SHWSYS1, Plant Loop Volume [m3], 3.46968E-002
 Component Sizing Information, Pump:ConstantSpeed, SHWSYS1 PUMP, Design Flow Rate [m3/s], 2.89140E-004
 Component Sizing Information, Pump:ConstantSpeed, SHWSYS1 PUMP, Design Power Consumption [W], 36.93455
 Component Sizing Information, WaterHeater:Mixed, SHWSYS1 WATER HEATER, Use Side Design Flow Rate [m3/s], 2.89140E-004
 Component Sizing Information, PlantLoop, SINGLE WATER PLANT LOOP, Maximum Loop Flow Rate [m3/s], 5.39265E-003
 Component Sizing Information, PlantLoop, SINGLE WATER PLANT LOOP, Plant Loop Volume [m3], 0.64712
 Component Sizing Information, Pump:ConstantSpeed, PLANT CIRC PUMP, Design Flow Rate [m3/s], 5.39265E-003
 Component Sizing Information, Pump:ConstantSpeed, PLANT CIRC PUMP, Design Power Consumption [W], 1375.39509
 Component Sizing Information, EvaporativeFluidCooler:SingleSpeed, CENTRAL TOWER, Design Water Flow Rate [m3/s], 5.39265E-003
 Component Sizing Information, EvaporativeFluidCooler:SingleSpeed, CENTRAL TOWER, Fan Power at Design Air Flow Rate [W], 2603.25127
 Component Sizing Information, EvaporativeFluidCooler:SingleSpeed, CENTRAL TOWER, Design Air Flow Rate [m3/s], 8.33021
 Component Sizing Information, EvaporativeFluidCooler:SingleSpeed, CENTRAL TOWER, U-Factor Times Area Value at Design Air Flow Rate [W/C], 6635.93630
 Component Sizing Information, Boiler:HotWater, CENTRAL BOILER, Design Size Nominal Capacity [W], 244079.97005
 Component Sizing Information, Boiler:HotWater, CENTRAL BOILER, User-Specified Nominal Capacity [W], 224542.18000
 Component Sizing Information, Boiler:HotWater, CENTRAL BOILER, Design Size Design Water Flow Rate [m3/s], 5.39265E-003
! <Environment>,Environment Name,Environment Type, Start Date, End Date, Start DayOfWeek, Duration {#days}, Source:Start DayOfWeek,  Use Daylight Saving, Use Holidays, Apply Weekend Holiday Rule,  Use Rain Values, Use Snow Values
! <Environment:Special Days>, Special Day Name, Special Day Type, Source, Start Date, Duration {#days}
! <Environment:Daylight Saving>, Daylight Saving Indicator, Source, Start Date, End Date
! <Environment:WarmupDays>, NumberofWarmupDays
Environment,RUNPERIOD 1,WeatherFileRunPeriod,05/01/2011,05/02/2011,Sunday,2,Use RunPeriod Specified Day,No,No,No,Yes,Yes
Environment:Daylight Saving,Yes,InputFile,03/13,11/06
Environment:Special Days,CHRISTMAS,Holiday,InputFile,12/25,  1
Environment:Special Days,COLUMBUS DAY,Holiday,InputFile,10/10,  1
Environment:Special Days,INDEPENDENCE DAY,Holiday,InputFile,07/04,  1
Environment:Special Days,LABOR DAY,Holiday,InputFile,09/05,  1
Environment:Special Days,MEMORIAL DAY,Holiday,InputFile,05/30,  1
Environment:Special Days,MLK DAY,Holiday,InputFile,01/17,  1
Environment:Special Days,NEW YEARS DAY,Holiday,InputFile,01/01,  1
Environment:Special Days,PRESIDENTS DAY,Holiday,InputFile,02/21,  1
Environment:Special Days,THANKSGIVING,Holiday,InputFile,11/24,  1
Environment:Special Days,VETERANS DAY,Holiday,InputFile,11/11,  1
Environment:WarmupDays, 16
! <Tabular Report>,Style,Unit Conversion
Tabular Report,Commaandhtml,commaandhtml
! <Warmup Convergence Information>,Zone Name,Environment Type/Name,Average Warmup Temperature Difference {deltaC},Std Dev Warmup Temperature Difference {deltaC},Max Temperature Pass/Fail Convergence,Min Temperature Pass/Fail Convergence,Average Warmup Load Difference {W},Std Dev Warmup Load Difference {W},Heating Load Pass/Fail Convergence,Cooling Load Pass/Fail Convergence
 Warmup Convergence Information,F2 CORRIDOR,RunPeriod: RUNPERIOD 1,7.7929953575E-003,4.6014286107E-003,Pass,Pass,0.0000000000,0.0000000000,Pass,Pass
 Warmup Convergence Information,F2 N1 APARTMENT,RunPeriod: RUNPERIOD 1,1.4014623455E-002,1.2005350804E-002,Pass,Pass,1.0440401436E-002,1.2701959870E-002,Pass,Pass
 Warmup Convergence Information,F2 N2 APARTMENT,RunPeriod: RUNPERIOD 1,1.4233553317E-002,1.1827090177E-002,Pass,Pass,1.0363768921E-002,1.4921967746E-002,Pass,Pass
 Warmup Convergence Information,F2 NE APARTMENT,RunPeriod: RUNPERIOD 1,1.9325711407E-002,1.4302279538E-002,Pass,Pass,9.7874204293E-003,1.0373137466E-002,Pass,Pass
 Warmup Convergence Information,F2 NW APARTMENT,RunPeriod: RUNPERIOD 1,1.5028117489E-002,1.4488582118E-002,Pass,Pass,1.6074568891E-002,2.2360593547E-002,Pass,Pass
 Warmup Convergence Information,F2 S1 APARTMENT,RunPeriod: RUNPERIOD 1,9.9271954420E-003,9.8713243259E-003,Pass,Pass,1.2491079165E-002,1.9552869324E-002,Pass,Pass
 Warmup Convergence Information,F2 S2 APARTMENT,RunPeriod: RUNPERIOD 1,1.0401496478E-002,1.0110245087E-002,Pass,Pass,1.2002997973E-002,1.8468910476E-002,Pass,Pass
 Warmup Convergence Information,F2 SE APARTMENT,RunPeriod: RUNPERIOD 1,1.5544741797E-002,1.4887070290E-002,Pass,Pass,1.3623994075E-002,2.3177967646E-002,Pass,Pass
 Warmup Convergence Information,F2 SW APARTMENT,RunPeriod: RUNPERIOD 1,1.1844392988E-002,1.2089849651E-002,Pass,Pass,1.6181721570E-002,1.9618276365E-002,Pass,Pass
 Warmup Convergence Information,F3 CORRIDOR,RunPeriod: RUNPERIOD 1,8.1218715986E-003,4.5233375100E-003,Pass,Pass,0.0000000000,0.0000000000,Pass,Pass
 Warmup Convergence Information,F3 N1 APARTMENT,RunPeriod: RUNPERIOD 1,1.2239507498E-002,1.1415893269E-002,Pass,Pass,1.2471091577E-002,1.7488064203E-002,Pass,Pass
 Warmup Convergence Information,F3 N2 APARTMENT,RunPeriod: RUNPERIOD 1,1.2618682560E-002,1.1641036222E-002,Pass,Pass,1.2855064382E-002,2.2667092961E-002,Pass,Pass
 Warmup Convergence Information,F3 NE APARTMENT,RunPeriod: RUNPERIOD 1,1.7591328836E-002,1.5231230856E-002,Pass,Pass,1.2574900346E-002,1.6678556634E-002,Pass,Pass
 Warmup Convergence Information,F3 NW APARTMENT,RunPeriod: RUNPERIOD 1,1.4894802986E-002,1.4056869956E-002,Pass,Pass,1.6304312862E-002,2.2250858627E-002,Pass,Pass
 Warmup Convergence Information,F3 S1 APARTMENT,RunPeriod: RUNPERIOD 1,8.3317116351E-003,9.8752409908E-003,Pass,Pass,1.1791153925E-002,1.7642111942E-002,Pass,Pass
 Warmup Convergence Information,F3 S2 APARTMENT,RunPeriod: RUNPERIOD 1,8.6262267106E-003,1.0012233748E-002,Pass,Pass,1.1986372503E-002,1.7953459082E-002,Pass,Pass
 Warmup Convergence Information,F3 SE APARTMENT,RunPeriod: RUNPERIOD 1,1.2513568772E-002,1.4793151496E-002,Pass,Pass,1.5626545884E-002,2.3561280519E-002,Pass,Pass
 Warmup Convergence Information,F3 SW APARTMENT,RunPeriod: RUNPERIOD 1,1.2064761427E-002,1.1817883786E-002,Pass,Pass,1.6337972147E-002,2.1844021884E-002,Pass,Pass
 Warmup Convergence Information,F4 CORRIDOR,RunPeriod: RUNPERIOD 1,8.1762083839E-003,4.5260642500E-003,Pass,Pass,0.0000000000,0.0000000000,Pass,Pass
 Warmup Convergence Information,F4 N1 APARTMENT,RunPeriod: RUNPERIOD 1,1.2495734086E-002,1.1417384318E-002,Pass,Pass,1.2595527516E-002,1.8449840098E-002,Pass,Pass
 Warmup Convergence Information,F4 N2 APARTMENT,RunPeriod: RUNPERIOD 1,1.2869545614E-002,1.1588692226E-002,Pass,Pass,1.3022431733E-002,2.2099894397E-002,Pass,Pass
 Warmup Convergence Information,F4 NE APARTMENT,RunPeriod: RUNPERIOD 1,1.8343988716E-002,1.5342952359E-002,Pass,Pass,1.2161770612E-002,1.6293181599E-002,Pass,Pass
 Warmup Convergence Information,F4 NW APARTMENT,RunPeriod: RUNPERIOD 1,1.5760063460E-002,1.4378234327E-002,Pass,Pass,1.6277231461E-002,2.1304279779E-002,Pass,Pass
 Warmup Convergence Information,F4 S1 APARTMENT,RunPeriod: RUNPERIOD 1,8.6782524357E-003,9.9917107565E-003,Pass,Pass,1.2617792650E-002,1.8264047370E-002,Pass,Pass
 Warmup Convergence Information,F4 S2 APARTMENT,RunPeriod: RUNPERIOD 1,8.8342688602E-003,1.0116309461E-002,Pass,Pass,1.2361637003E-002,1.7845106281E-002,Pass,Pass
 Warmup Convergence Information,F4 SE APARTMENT,RunPeriod: RUNPERIOD 1,1.2945234995E-002,1.4939188950E-002,Pass,Pass,1.6530622099E-002,2.4386915016E-002,Pass,Pass
 Warmup Convergence Information,F4 SW APARTMENT,RunPeriod: RUNPERIOD 1,1.3025872659E-002,1.2381470700E-002,Pass,Pass,1.6292174027E-002,1.9885105241E-002,Pass,Pass
 Warmup Convergence Information,F6 CORRIDOR,RunPeriod: RUNPERIOD 1,8.4985903009E-003,4.6294576505E-003,Pass,Pass,0.0000000000,0.0000000000,Pass,Pass
 Warmup Convergence Information,F6 N1 APARTMENT,RunPeriod: RUNPERIOD 1,1.5211085280E-002,1.1204158231E-002,Pass,Pass,1.0424583665E-002,1.3629273799E-002,Pass,Pass
 Warmup Convergence Information,F6 N2 APARTMENT,RunPeriod: RUNPERIOD 1,1.5380731810E-002,1.1138439257E-002,Pass,Pass,1.0316288180E-002,1.3163813160E-002,Pass,Pass
 Warmup Convergence Information,F6 NE APARTMENT,RunPeriod: RUNPERIOD 1,2.0972055321E-002,1.4684194846E-002,Pass,Pass,9.4523424091E-003,1.0182599946E-002,Pass,Pass
 Warmup Convergence Information,F6 NW APARTMENT,RunPeriod: RUNPERIOD 1,1.8010651794E-002,1.5733857939E-002,Pass,Pass,1.6760378671E-002,2.7546654558E-002,Pass,Pass
 Warmup Convergence Information,F6 S1 APARTMENT,RunPeriod: RUNPERIOD 1,1.0848501149E-002,1.0279474703E-002,Pass,Pass,1.2933338666E-002,1.8966556476E-002,Pass,Pass
 Warmup Convergence Information,F6 S2 APARTMENT,RunPeriod: RUNPERIOD 1,1.1017375263E-002,1.0325647148E-002,Pass,Pass,1.2942007843E-002,1.9136097937E-002,Pass,Pass
 Warmup Convergence Information,F6 SE APARTMENT,RunPeriod: RUNPERIOD 1,1.6577033324E-002,1.5330257166E-002,Pass,Pass,1.4502175114E-002,2.3527837122E-002,Pass,Pass
 Warmup Convergence Information,F6 SW APARTMENT,RunPeriod: RUNPERIOD 1,1.5211834236E-002,1.3558155872E-002,Pass,Pass,1.6389709168E-002,2.1805542478E-002,Pass,Pass
 Warmup Convergence Information,F7 CORRIDOR,RunPeriod: RUNPERIOD 1,8.6390693390E-003,4.7033864025E-003,Pass,Pass,0.0000000000,0.0000000000,Pass,Pass
 Warmup Convergence Information,F7 N1 APARTMENT,RunPeriod: RUNPERIOD 1,1.5972675489E-002,1.1272613358E-002,Pass,Pass,9.6678804262E-003,9.8412773087E-003,Pass,Pass
 Warmup Convergence Information,F7 N2 APARTMENT,RunPeriod: RUNPERIOD 1,1.5720047144E-002,1.1226715271E-002,Pass,Pass,9.6966409635E-003,9.8813300221E-003,Pass,Pass
 Warmup Convergence Information,F7 NE APARTMENT,RunPeriod: RUNPERIOD 1,2.1218118335E-002,1.4834749661E-002,Pass,Pass,9.5989791375E-003,1.0343449934E-002,Pass,Pass
 Warmup Convergence Information,F7 NW APARTMENT,RunPeriod: RUNPERIOD 1,1.9156310490E-002,1.6312214308E-002,Pass,Pass,1.6236793419E-002,2.6192977149E-002,Pass,Pass
 Warmup Convergence Information,F7 S1 APARTMENT,RunPeriod: RUNPERIOD 1,1.1741281512E-002,1.0658075773E-002,Pass,Pass,1.2664258962E-002,1.8536137022E-002,Pass,Pass
 Warmup Convergence Information,F7 S2 APARTMENT,RunPeriod: RUNPERIOD 1,1.1937392738E-002,1.0568686159E-002,Pass,Pass,1.2319710205E-002,1.8552439695E-002,Pass,Pass
 Warmup Convergence Information,F7 SE APARTMENT,RunPeriod: RUNPERIOD 1,1.8441598664E-002,1.5814517888E-002,Pass,Pass,1.3490939150E-002,2.0266309288E-002,Pass,Pass
 Warmup Convergence Information,F7 SW APARTMENT,RunPeriod: RUNPERIOD 1,1.6296322797E-002,1.4107463946E-002,Pass,Pass,1.6324054614E-002,2.3094921361E-002,Pass,Pass
 Warmup Convergence Information,F8 CORRIDOR,RunPeriod: RUNPERIOD 1,8.6990140464E-003,4.7466584125E-003,Pass,Pass,0.0000000000,0.0000000000,Pass,Pass
 Warmup Convergence Information,F8 N1 APARTMENT,RunPeriod: RUNPERIOD 1,1.6206716266E-002,1.1317300840E-002,Pass,Pass,9.8090808919E-003,9.9877768069E-003,Pass,Pass
 Warmup Convergence Information,F8 N2 APARTMENT,RunPeriod: RUNPERIOD 1,1.5944966748E-002,1.1261188934E-002,Pass,Pass,9.8404929580E-003,1.0030625481E-002,Pass,Pass
 Warmup Convergence Information,F8 NE APARTMENT,RunPeriod: RUNPERIOD 1,2.1419810368E-002,1.4952533823E-002,Pass,Pass,9.7560966222E-003,1.0511811561E-002,Pass,Pass
 Warmup Convergence Information,F8 NW APARTMENT,RunPeriod: RUNPERIOD 1,2.0385505051E-002,1.6420683288E-002,Pass,Pass,1.5388488869E-002,2.4175989515E-002,Pass,Pass
 Warmup Convergence Information,F8 S1 APARTMENT,RunPeriod: RUNPERIOD 1,1.2824344187E-002,1.0647773962E-002,Pass,Pass,1.2923497011E-002,1.6658249407E-002,Pass,Pass
 Warmup Convergence Information,F8 S2 APARTMENT,RunPeriod: RUNPERIOD 1,1.3243080854E-002,1.0653478331E-002,Pass,Pass,1.2772131110E-002,1.9888649915E-002,Pass,Pass
 Warmup Convergence Information,F8 SE APARTMENT,RunPeriod: RUNPERIOD 1,2.0543597756E-002,1.4915514118E-002,Pass,Pass,9.7181294585E-003,1.0499003093E-002,Pass,Pass
 Warmup Convergence Information,F8 SW APARTMENT,RunPeriod: RUNPERIOD 1,1.7483460664E-002,1.4801795161E-002,Pass,Pass,1.6413813122E-002,2.9923122734E-002,Pass,Pass
 Warmup Convergence Information,F9 CORRIDOR,RunPeriod: RUNPERIOD 1,9.3920625934E-003,4.8486473320E-003,Pass,Pass,0.0000000000,0.0000000000,Pass,Pass
 Warmup Convergence Information,F9 N1 APARTMENT,RunPeriod: RUNPERIOD 1,1.6586452186E-002,1.1306422270E-002,Pass,Pass,9.9920722612E-003,1.0182835541E-002,Pass,Pass
 Warmup Convergence Information,F9 N2 APARTMENT,RunPeriod: RUNPERIOD 1,1.6324908310E-002,1.1223817579E-002,Pass,Pass,1.0016941169E-002,1.0222349992E-002,Pass,Pass
 Warmup Convergence Information,F9 NE APARTMENT,RunPeriod: RUNPERIOD 1,2.1719498621E-002,1.4800134725E-002,Pass,Pass,9.9158876285E-003,1.0704771288E-002,Pass,Pass
 Warmup Convergence Information,F9 NW APARTMENT,RunPeriod: RUNPERIOD 1,2.1861213792E-002,1.6618194302E-002,Pass,Pass,1.4900271567E-002,2.7206443241E-002,Pass,Pass
 Warmup Convergence Information,F9 S1 APARTMENT,RunPeriod: RUNPERIOD 1,1.4841689921E-002,1.1162347215E-002,Pass,Pass,1.1260742851E-002,1.4176899203E-002,Pass,Pass
 Warmup Convergence Information,F9 S2 APARTMENT,RunPeriod: RUNPERIOD 1,1.4958783108E-002,1.0981440127E-002,Pass,Pass,1.0400074102E-002,1.2366277526E-002,Pass,Pass
 Warmup Convergence Information,F9 SE APARTMENT,RunPeriod: RUNPERIOD 1,2.1072696483E-002,1.4665149575E-002,Pass,Pass,9.4579771411E-003,1.0222119078E-002,Pass,Pass
 Warmup Convergence Information,F9 SW APARTMENT,RunPeriod: RUNPERIOD 1,1.9005312437E-002,1.6068037141E-002,Pass,Pass,1.6026316211E-002,2.3746748793E-002,Pass,Pass
 Warmup Convergence Information,G CORRIDOR,RunPeriod: RUNPERIOD 1,8.9451511142E-002,0.3241521807,Pass,Pass,0.0000000000,0.0000000000,Pass,Pass
 Warmup Convergence Information,G N1 APARTMENT,RunPeriod: RUNPERIOD 1,1.5202115059E-002,1.3636931350E-002,Pass,Pass,1.0008907977E-002,1.0309218290E-002,Pass,Pass
 Warmup Convergence Information,G N2 APARTMENT,RunPeriod: RUNPERIOD 1,1.5098778608E-002,1.3544036048E-002,Pass,Pass,1.0059830002E-002,1.0373435933E-002,Pass,Pass
 Warmup Convergence Information,G NE APARTMENT,RunPeriod: RUNPERIOD 1,1.8135306300E-002,1.3411420110E-002,Pass,Pass,9.8604544264E-003,1.0618877897E-002,Pass,Pass
 Warmup Convergence Information,G NW APARTMENT,RunPeriod: RUNPERIOD 1,1.9056455430E-002,1.7935921427E-002,Pass,Pass,1.2292446079E-002,2.0542409313E-002,Pass,Pass
 Warmup Convergence Information,G S1 APARTMENT,RunPeriod: RUNPERIOD 1,1.4143762063E-002,1.3526790235E-002,Pass,Pass,1.0185432885E-002,1.1570379365E-002,Pass,Pass
 Warmup Convergence Information,G S2 APARTMENT,RunPeriod: RUNPERIOD 1,1.4513960239E-002,1.3280608448E-002,Pass,Pass,9.5411607090E-003,9.8428108460E-003,Pass,Pass
 Warmup Convergence Information,G SW APARTMENT,RunPeriod: RUNPERIOD 1,1.5276388325E-002,1.6101856043E-002,Pass,Pass,1.3064406682E-002,2.1444916927E-002,Pass,Pass
 Warmup Convergence Information,M CORRIDOR,RunPeriod: RUNPERIOD 1,8.3376504138E-003,4.5631111974E-003,Pass,Pass,0.0000000000,0.0000000000,Pass,Pass
 Warmup Convergence Information,M N1 APARTMENT,RunPeriod: RUNPERIOD 1,1.3525955146E-002,1.1648546999E-002,Pass,Pass,1.2171892756E-002,1.5186811222E-002,Pass,Pass
 Warmup Convergence Information,M N2 APARTMENT,RunPeriod: RUNPERIOD 1,1.4195420344E-002,1.1304973339E-002,Pass,Pass,1.1238211620E-002,1.4368579651E-002,Pass,Pass
 Warmup Convergence Information,M NE APARTMENT,RunPeriod: RUNPERIOD 1,1.9846230488E-002,1.5057578648E-002,Pass,Pass,1.0967421545E-002,1.3901497799E-002,Pass,Pass
 Warmup Convergence Information,M NW APARTMENT,RunPeriod: RUNPERIOD 1,1.6869320992E-002,1.4884406943E-002,Pass,Pass,1.6209263748E-002,2.4769674049E-002,Pass,Pass
 Warmup Convergence Information,M S1 APARTMENT,RunPeriod: RUNPERIOD 1,9.7620853066E-003,1.0111275594E-002,Pass,Pass,1.3002048208E-002,1.8385682366E-002,Pass,Pass
 Warmup Convergence Information,M S2 APARTMENT,RunPeriod: RUNPERIOD 1,9.8696960776E-003,1.0222806364E-002,Pass,Pass,1.3175794205E-002,1.8962271210E-002,Pass,Pass
 Warmup Convergence Information,M SE APARTMENT,RunPeriod: RUNPERIOD 1,1.4431317246E-002,1.5333155122E-002,Pass,Pass,1.6310436784E-002,2.4734830877E-002,Pass,Pass
 Warmup Convergence Information,M SW APARTMENT,RunPeriod: RUNPERIOD 1,1.4116847816E-002,1.3132905089E-002,Pass,Pass,1.6319306685E-002,2.0575724123E-002,Pass,Pass
 Warmup Convergence Information,OFFICE,RunPeriod: RUNPERIOD 1,1.5456913564E-002,1.0547371545E-002,Pass,Pass,3.7913895125E-002,5.6279143155E-002,Pass,Pass
 Warmup Convergence Information,T CORRIDOR,RunPeriod: RUNPERIOD 1,2.8706765254E-002,2.4018289588E-002,Pass,Pass,0.0000000000,0.0000000000,Pass,Pass
 Warmup Convergence Information,T N1 APARTMENT,RunPeriod: RUNPERIOD 1,2.5086793048E-002,1.5834800636E-002,Pass,Pass,1.0584159461E-002,1.4849677361E-002,Pass,Pass
 Warmup Convergence Information,T N2 APARTMENT,RunPeriod: RUNPERIOD 1,2.5167622768E-002,1.5767230643E-002,Pass,Pass,9.8437154212E-003,1.0818785594E-002,Pass,Pass
 Warmup Convergence Information,T NE APARTMENT,RunPeriod: RUNPERIOD 1,4.4400484285E-002,3.4794346425E-002,Pass,Pass,0.1701009165,0.5867049764,Pass,Pass
 Warmup Convergence Information,T NW APARTMENT,RunPeriod: RUNPERIOD 1,3.6007613077E-002,2.8817715474E-002,Pass,Pass,7.4227398798E-002,0.2521424073,Pass,Pass
 Warmup Convergence Information,T S1 APARTMENT,RunPeriod: RUNPERIOD 1,2.1333422372E-002,1.6914869845E-002,Pass,Pass,1.2683434993E-002,1.9470487251E-002,Pass,Pass
 Warmup Convergence Information,T S2 APARTMENT,RunPeriod: RUNPERIOD 1,2.1884384142E-002,1.6685764680E-002,Pass,Pass,1.1927837834E-002,1.9654802280E-002,Pass,Pass
 Warmup Convergence Information,T SE APARTMENT,RunPeriod: RUNPERIOD 1,3.7492650430E-002,3.1922334645E-002,Pass,Pass,6.9211523862E-002,0.2031597330,Pass,Pass
 Warmup Convergence Information,T SW APARTMENT,RunPeriod: RUNPERIOD 1,3.0704679752E-002,2.4260021626E-002,Pass,Pass,0.1808966872,1.0837728773,Pass,Pass
! <Program Control Information:Threads/Parallel Sims>, Threading Supported,Maximum Number of Threads, Env Set Threads (OMP_NUM_THREADS), EP Env Set Threads (EP_OMP_NUM_THREADS), IDF Set Threads, Number of Threads Used (Interior Radiant Exchange), Number Nominal Surfaces, Number Parallel Sims
Program Control:Threads/Parallel Sims, No,1, N/A, N/A, N/A, N/A, N/A, N/A
End of Data
