! Program Version,EnergyPlus, Version 9.0.1-bb7ca4f0da, YMD=2024.08.21 15:48,
! Output:Meter Objects (applicable to this run)
Output:Meter,Electricity:Facility,hourly; !- [J]
Output:Meter:Cumulative,Electricity:Facility,hourly; !- [J]
Output:Meter,Electricity:Building,hourly; !- [J]
Output:Meter:Cumulative,Electricity:Building,hourly; !- [J]
Output:Meter,Electricity:Zone:F2 CORRIDOR,hourly; !- [J]
Output:Meter:Cumulative,Electricity:Zone:F2 CORRIDOR,hourly; !- [J]
Output:Meter,InteriorLights:Electricity,hourly; !- [J]
Output:Meter:Cumulative,InteriorLights:Electricity,hourly; !- [J]
Output:Meter,InteriorLights:Electricity:Zone:F2 CORRIDOR,hourly; !- [J]
Output:Meter:Cumulative,InteriorLights:Electricity:Zone:F2 CORRIDOR,hourly; !- [J]
Output:Meter,LightsWired:InteriorLights:Electricity,hourly; !- [J]
Output:Meter:Cumulative,LightsWired:InteriorLights:Electricity,hourly; !- [J]
Output:Meter,Electricity:Zone:F2 N1 APARTMENT,hourly; !- [J]
Output:Meter:Cumulative,Electricity:Zone:F2 N1 APARTMENT,hourly; !- [J]
Output:Meter,InteriorLights:Electricity:Zone:F2 N1 APARTMENT,hourly; !- [J]
Output:Meter:Cumulative,InteriorLights:Electricity:Zone:F2 N1 APARTMENT,hourly; !- [J]
Output:Meter,LightsPlugIn:InteriorLights:Electricity,hourly; !- [J]
Output:Meter:Cumulative,LightsPlugIn:InteriorLights:Electricity,hourly; !- [J]
Output:Meter,Electricity:Zone:F2 N2 APARTMENT,hourly; !- [J]
Output:Meter:Cumulative,Electricity:Zone:F2 N2 APARTMENT,hourly; !- [J]
Output:Meter,InteriorLights:Electricity:Zone:F2 N2 APARTMENT,hourly; !- [J]
Output:Meter:Cumulative,InteriorLights:Electricity:Zone:F2 N2 APARTMENT,hourly; !- [J]
Output:Meter,Electricity:Zone:F2 NE APARTMENT,hourly; !- [J]
Output:Meter:Cumulative,Electricity:Zone:F2 NE APARTMENT,hourly; !- [J]
Output:Meter,InteriorLights:Electricity:Zone:F2 NE APARTMENT,hourly; !- [J]
Output:Meter:Cumulative,InteriorLights:Electricity:Zone:F2 NE APARTMENT,hourly; !- [J]
Output:Meter,Electricity:Zone:F2 NW APARTMENT,hourly; !- [J]
Output:Meter:Cumulative,Electricity:Zone:F2 NW APARTMENT,hourly; !- [J]
Output:Meter,InteriorLights:Electricity:Zone:F2 NW APARTMENT,hourly; !- [J]
Output:Meter:Cumulative,InteriorLights:Electricity:Zone:F2 NW APARTMENT,hourly; !- [J]
Output:Meter,Electricity:Zone:F2 S1 APARTMENT,hourly; !- [J]
Output:Meter:Cumulative,Electricity:Zone:F2 S1 APARTMENT,hourly; !- [J]
Output:Meter,InteriorLights:Electricity:Zone:F2 S1 APARTMENT,hourly; !- [J]
Output:Meter:Cumulative,InteriorLights:Electricity:Zone:F2 S1 APARTMENT,hourly; !- [J]
Output:Meter,Electricity:Zone:F2 S2 APARTMENT,hourly; !- [J]
Output:Meter:Cumulative,Electricity:Zone:F2 S2 APARTMENT,hourly; !- [J]
Output:Meter,InteriorLights:Electricity:Zone:F2 S2 APARTMENT,hourly; !- [J]
Output:Meter:Cumulative,InteriorLights:Electricity:Zone:F2 S2 APARTMENT,hourly; !- [J]
Output:Meter,Electricity:Zone:F2 SE APARTMENT,hourly; !- [J]
Output:Meter:Cumulative,Electricity:Zone:F2 SE APARTMENT,hourly; !- [J]
Output:Meter,InteriorLights:Electricity:Zone:F2 SE APARTMENT,hourly; !- [J]
Output:Meter:Cumulative,InteriorLights:Electricity:Zone:F2 SE APARTMENT,hourly; !- [J]
Output:Meter,Electricity:Zone:F2 SW APARTMENT,hourly; !- [J]
Output:Meter:Cumulative,Electricity:Zone:F2 SW APARTMENT,hourly; !- [J]
Output:Meter,InteriorLights:Electricity:Zone:F2 SW APARTMENT,hourly; !- [J]
Output:Meter:Cumulative,InteriorLights:Electricity:Zone:F2 SW APARTMENT,hourly; !- [J]
Output:Meter,Electricity:Zone:F3 CORRIDOR,hourly; !- [J]
Output:Meter:Cumulative,Electricity:Zone:F3 CORRIDOR,hourly; !- [J]
Output:Meter,InteriorLights:Electricity:Zone:F3 CORRIDOR,hourly; !- [J]
Output:Meter:Cumulative,InteriorLights:Electricity:Zone:F3 CORRIDOR,hourly; !- [J]
Output:Meter,Electricity:Zone:F3 N1 APARTMENT,hourly; !- [J]
Output:Meter:Cumulative,Electricity:Zone:F3 N1 APARTMENT,hourly; !- [J]
Output:Meter,InteriorLights:Electricity:Zone:F3 N1 APARTMENT,hourly; !- [J]
Output:Meter:Cumulative,InteriorLights:Electricity:Zone:F3 N1 APARTMENT,hourly; !- [J]
Output:Meter,Electricity:Zone:F3 N2 APARTMENT,hourly; !- [J]
Output:Meter:Cumulative,Electricity:Zone:F3 N2 APARTMENT,hourly; !- [J]
Output:Meter,InteriorLights:Electricity:Zone:F3 N2 APARTMENT,hourly; !- [J]
Output:Meter:Cumulative,InteriorLights:Electricity:Zone:F3 N2 APARTMENT,hourly; !- [J]
Output:Meter,Electricity:Zone:F3 NE APARTMENT,hourly; !- [J]
Output:Meter:Cumulative,Electricity:Zone:F3 NE APARTMENT,hourly; !- [J]
Output:Meter,InteriorLights:Electricity:Zone:F3 NE APARTMENT,hourly; !- [J]
Output:Meter:Cumulative,InteriorLights:Electricity:Zone:F3 NE APARTMENT,hourly; !- [J]
Output:Meter,Electricity:Zone:F3 NW APARTMENT,hourly; !- [J]
Output:Meter:Cumulative,Electricity:Zone:F3 NW APARTMENT,hourly; !- [J]
Output:Meter,InteriorLights:Electricity:Zone:F3 NW APARTMENT,hourly; !- [J]
Output:Meter:Cumulative,InteriorLights:Electricity:Zone:F3 NW APARTMENT,hourly; !- [J]
Output:Meter,Electricity:Zone:F3 S1 APARTMENT,hourly; !- [J]
Output:Meter:Cumulative,Electricity:Zone:F3 S1 APARTMENT,hourly; !- [J]
Output:Meter,InteriorLights:Electricity:Zone:F3 S1 APARTMENT,hourly; !- [J]
Output:Meter:Cumulative,InteriorLights:Electricity:Zone:F3 S1 APARTMENT,hourly; !- [J]
Output:Meter,Electricity:Zone:F3 S2 APARTMENT,hourly; !- [J]
Output:Meter:Cumulative,Electricity:Zone:F3 S2 APARTMENT,hourly; !- [J]
Output:Meter,InteriorLights:Electricity:Zone:F3 S2 APARTMENT,hourly; !- [J]
Output:Meter:Cumulative,InteriorLights:Electricity:Zone:F3 S2 APARTMENT,hourly; !- [J]
Output:Meter,Electricity:Zone:F3 SE APARTMENT,hourly; !- [J]
Output:Meter:Cumulative,Electricity:Zone:F3 SE APARTMENT,hourly; !- [J]
Output:Meter,InteriorLights:Electricity:Zone:F3 SE APARTMENT,hourly; !- [J]
Output:Meter:Cumulative,InteriorLights:Electricity:Zone:F3 SE APARTMENT,hourly; !- [J]
Output:Meter,Electricity:Zone:F3 SW APARTMENT,hourly; !- [J]
Output:Meter:Cumulative,Electricity:Zone:F3 SW APARTMENT,hourly; !- [J]
Output:Meter,InteriorLights:Electricity:Zone:F3 SW APARTMENT,hourly; !- [J]
Output:Meter:Cumulative,InteriorLights:Electricity:Zone:F3 SW APARTMENT,hourly; !- [J]
Output:Meter,Electricity:Zone:F4 CORRIDOR,hourly; !- [J]
Output:Meter:Cumulative,Electricity:Zone:F4 CORRIDOR,hourly; !- [J]
Output:Meter,InteriorLights:Electricity:Zone:F4 CORRIDOR,hourly; !- [J]
Output:Meter:Cumulative,InteriorLights:Electricity:Zone:F4 CORRIDOR,hourly; !- [J]
Output:Meter,Electricity:Zone:F4 N1 APARTMENT,hourly; !- [J]
Output:Meter:Cumulative,Electricity:Zone:F4 N1 APARTMENT,hourly; !- [J]
Output:Meter,InteriorLights:Electricity:Zone:F4 N1 APARTMENT,hourly; !- [J]
Output:Meter:Cumulative,InteriorLights:Electricity:Zone:F4 N1 APARTMENT,hourly; !- [J]
Output:Meter,Electricity:Zone:F4 N2 APARTMENT,hourly; !- [J]
Output:Meter:Cumulative,Electricity:Zone:F4 N2 APARTMENT,hourly; !- [J]
Output:Meter,InteriorLights:Electricity:Zone:F4 N2 APARTMENT,hourly; !- [J]
Output:Meter:Cumulative,InteriorLights:Electricity:Zone:F4 N2 APARTMENT,hourly; !- [J]
Output:Meter,Electricity:Zone:F4 NE APARTMENT,hourly; !- [J]
Output:Meter:Cumulative,Electricity:Zone:F4 NE APARTMENT,hourly; !- [J]
Output:Meter,InteriorLights:Electricity:Zone:F4 NE APARTMENT,hourly; !- [J]
Output:Meter:Cumulative,InteriorLights:Electricity:Zone:F4 NE APARTMENT,hourly; !- [J]
Output:Meter,Electricity:Zone:F4 NW APARTMENT,hourly; !- [J]
Output:Meter:Cumulative,Electricity:Zone:F4 NW APARTMENT,hourly; !- [J]
Output:Meter,InteriorLights:Electricity:Zone:F4 NW APARTMENT,hourly; !- [J]
Output:Meter:Cumulative,InteriorLights:Electricity:Zone:F4 NW APARTMENT,hourly; !- [J]
Output:Meter,Electricity:Zone:F4 S1 APARTMENT,hourly; !- [J]
Output:Meter:Cumulative,Electricity:Zone:F4 S1 APARTMENT,hourly; !- [J]
Output:Meter,InteriorLights:Electricity:Zone:F4 S1 APARTMENT,hourly; !- [J]
Output:Meter:Cumulative,InteriorLights:Electricity:Zone:F4 S1 APARTMENT,hourly; !- [J]
Output:Meter,Electricity:Zone:F4 S2 APARTMENT,hourly; !- [J]
Output:Meter:Cumulative,Electricity:Zone:F4 S2 APARTMENT,hourly; !- [J]
Output:Meter,InteriorLights:Electricity:Zone:F4 S2 APARTMENT,hourly; !- [J]
Output:Meter:Cumulative,InteriorLights:Electricity:Zone:F4 S2 APARTMENT,hourly; !- [J]
Output:Meter,Electricity:Zone:F4 SE APARTMENT,hourly; !- [J]
Output:Meter:Cumulative,Electricity:Zone:F4 SE APARTMENT,hourly; !- [J]
Output:Meter,InteriorLights:Electricity:Zone:F4 SE APARTMENT,hourly; !- [J]
Output:Meter:Cumulative,InteriorLights:Electricity:Zone:F4 SE APARTMENT,hourly; !- [J]
Output:Meter,Electricity:Zone:F4 SW APARTMENT,hourly; !- [J]
Output:Meter:Cumulative,Electricity:Zone:F4 SW APARTMENT,hourly; !- [J]
Output:Meter,InteriorLights:Electricity:Zone:F4 SW APARTMENT,hourly; !- [J]
Output:Meter:Cumulative,InteriorLights:Electricity:Zone:F4 SW APARTMENT,hourly; !- [J]
Output:Meter,Electricity:Zone:F6 CORRIDOR,hourly; !- [J]
Output:Meter:Cumulative,Electricity:Zone:F6 CORRIDOR,hourly; !- [J]
Output:Meter,InteriorLights:Electricity:Zone:F6 CORRIDOR,hourly; !- [J]
Output:Meter:Cumulative,InteriorLights:Electricity:Zone:F6 CORRIDOR,hourly; !- [J]
Output:Meter,Electricity:Zone:F6 N1 APARTMENT,hourly; !- [J]
Output:Meter:Cumulative,Electricity:Zone:F6 N1 APARTMENT,hourly; !- [J]
Output:Meter,InteriorLights:Electricity:Zone:F6 N1 APARTMENT,hourly; !- [J]
Output:Meter:Cumulative,InteriorLights:Electricity:Zone:F6 N1 APARTMENT,hourly; !- [J]
Output:Meter,Electricity:Zone:F6 N2 APARTMENT,hourly; !- [J]
Output:Meter:Cumulative,Electricity:Zone:F6 N2 APARTMENT,hourly; !- [J]
Output:Meter,InteriorLights:Electricity:Zone:F6 N2 APARTMENT,hourly; !- [J]
Output:Meter:Cumulative,InteriorLights:Electricity:Zone:F6 N2 APARTMENT,hourly; !- [J]
Output:Meter,Electricity:Zone:F6 NE APARTMENT,hourly; !- [J]
Output:Meter:Cumulative,Electricity:Zone:F6 NE APARTMENT,hourly; !- [J]
Output:Meter,InteriorLights:Electricity:Zone:F6 NE APARTMENT,hourly; !- [J]
Output:Meter:Cumulative,InteriorLights:Electricity:Zone:F6 NE APARTMENT,hourly; !- [J]
Output:Meter,Electricity:Zone:F6 NW APARTMENT,hourly; !- [J]
Output:Meter:Cumulative,Electricity:Zone:F6 NW APARTMENT,hourly; !- [J]
Output:Meter,InteriorLights:Electricity:Zone:F6 NW APARTMENT,hourly; !- [J]
Output:Meter:Cumulative,InteriorLights:Electricity:Zone:F6 NW APARTMENT,hourly; !- [J]
Output:Meter,Electricity:Zone:F6 S1 APARTMENT,hourly; !- [J]
Output:Meter:Cumulative,Electricity:Zone:F6 S1 APARTMENT,hourly; !- [J]
Output:Meter,InteriorLights:Electricity:Zone:F6 S1 APARTMENT,hourly; !- [J]
Output:Meter:Cumulative,InteriorLights:Electricity:Zone:F6 S1 APARTMENT,hourly; !- [J]
Output:Meter,Electricity:Zone:F6 S2 APARTMENT,hourly; !- [J]
Output:Meter:Cumulative,Electricity:Zone:F6 S2 APARTMENT,hourly; !- [J]
Output:Meter,InteriorLights:Electricity:Zone:F6 S2 APARTMENT,hourly; !- [J]
Output:Meter:Cumulative,InteriorLights:Electricity:Zone:F6 S2 APARTMENT,hourly; !- [J]
Output:Meter,Electricity:Zone:F6 SE APARTMENT,hourly; !- [J]
Output:Meter:Cumulative,Electricity:Zone:F6 SE APARTMENT,hourly; !- [J]
Output:Meter,InteriorLights:Electricity:Zone:F6 SE APARTMENT,hourly; !- [J]
Output:Meter:Cumulative,InteriorLights:Electricity:Zone:F6 SE APARTMENT,hourly; !- [J]
Output:Meter,Electricity:Zone:F6 SW APARTMENT,hourly; !- [J]
Output:Meter:Cumulative,Electricity:Zone:F6 SW APARTMENT,hourly; !- [J]
Output:Meter,InteriorLights:Electricity:Zone:F6 SW APARTMENT,hourly; !- [J]
Output:Meter:Cumulative,InteriorLights:Electricity:Zone:F6 SW APARTMENT,hourly; !- [J]
Output:Meter,Electricity:Zone:F7 CORRIDOR,hourly; !- [J]
Output:Meter:Cumulative,Electricity:Zone:F7 CORRIDOR,hourly; !- [J]
Output:Meter,InteriorLights:Electricity:Zone:F7 CORRIDOR,hourly; !- [J]
Output:Meter:Cumulative,InteriorLights:Electricity:Zone:F7 CORRIDOR,hourly; !- [J]
Output:Meter,Electricity:Zone:F7 N1 APARTMENT,hourly; !- [J]
Output:Meter:Cumulative,Electricity:Zone:F7 N1 APARTMENT,hourly; !- [J]
Output:Meter,InteriorLights:Electricity:Zone:F7 N1 APARTMENT,hourly; !- [J]
Output:Meter:Cumulative,InteriorLights:Electricity:Zone:F7 N1 APARTMENT,hourly; !- [J]
Output:Meter,Electricity:Zone:F7 N2 APARTMENT,hourly; !- [J]
Output:Meter:Cumulative,Electricity:Zone:F7 N2 APARTMENT,hourly; !- [J]
Output:Meter,InteriorLights:Electricity:Zone:F7 N2 APARTMENT,hourly; !- [J]
Output:Meter:Cumulative,InteriorLights:Electricity:Zone:F7 N2 APARTMENT,hourly; !- [J]
Output:Meter,Electricity:Zone:F7 NE APARTMENT,hourly; !- [J]
Output:Meter:Cumulative,Electricity:Zone:F7 NE APARTMENT,hourly; !- [J]
Output:Meter,InteriorLights:Electricity:Zone:F7 NE APARTMENT,hourly; !- [J]
Output:Meter:Cumulative,InteriorLights:Electricity:Zone:F7 NE APARTMENT,hourly; !- [J]
Output:Meter,Electricity:Zone:F7 NW APARTMENT,hourly; !- [J]
Output:Meter:Cumulative,Electricity:Zone:F7 NW APARTMENT,hourly; !- [J]
Output:Meter,InteriorLights:Electricity:Zone:F7 NW APARTMENT,hourly; !- [J]
Output:Meter:Cumulative,InteriorLights:Electricity:Zone:F7 NW APARTMENT,hourly; !- [J]
Output:Meter,Electricity:Zone:F7 S1 APARTMENT,hourly; !- [J]
Output:Meter:Cumulative,Electricity:Zone:F7 S1 APARTMENT,hourly; !- [J]
Output:Meter,InteriorLights:Electricity:Zone:F7 S1 APARTMENT,hourly; !- [J]
Output:Meter:Cumulative,InteriorLights:Electricity:Zone:F7 S1 APARTMENT,hourly; !- [J]
Output:Meter,Electricity:Zone:F7 S2 APARTMENT,hourly; !- [J]
Output:Meter:Cumulative,Electricity:Zone:F7 S2 APARTMENT,hourly; !- [J]
Output:Meter,InteriorLights:Electricity:Zone:F7 S2 APARTMENT,hourly; !- [J]
Output:Meter:Cumulative,InteriorLights:Electricity:Zone:F7 S2 APARTMENT,hourly; !- [J]
Output:Meter,Electricity:Zone:F7 SE APARTMENT,hourly; !- [J]
Output:Meter:Cumulative,Electricity:Zone:F7 SE APARTMENT,hourly; !- [J]
Output:Meter,InteriorLights:Electricity:Zone:F7 SE APARTMENT,hourly; !- [J]
Output:Meter:Cumulative,InteriorLights:Electricity:Zone:F7 SE APARTMENT,hourly; !- [J]
Output:Meter,Electricity:Zone:F7 SW APARTMENT,hourly; !- [J]
Output:Meter:Cumulative,Electricity:Zone:F7 SW APARTMENT,hourly; !- [J]
Output:Meter,InteriorLights:Electricity:Zone:F7 SW APARTMENT,hourly; !- [J]
Output:Meter:Cumulative,InteriorLights:Electricity:Zone:F7 SW APARTMENT,hourly; !- [J]
Output:Meter,Electricity:Zone:F8 CORRIDOR,hourly; !- [J]
Output:Meter:Cumulative,Electricity:Zone:F8 CORRIDOR,hourly; !- [J]
Output:Meter,InteriorLights:Electricity:Zone:F8 CORRIDOR,hourly; !- [J]
Output:Meter:Cumulative,InteriorLights:Electricity:Zone:F8 CORRIDOR,hourly; !- [J]
Output:Meter,Electricity:Zone:F8 N1 APARTMENT,hourly; !- [J]
Output:Meter:Cumulative,Electricity:Zone:F8 N1 APARTMENT,hourly; !- [J]
Output:Meter,InteriorLights:Electricity:Zone:F8 N1 APARTMENT,hourly; !- [J]
Output:Meter:Cumulative,InteriorLights:Electricity:Zone:F8 N1 APARTMENT,hourly; !- [J]
Output:Meter,Electricity:Zone:F8 N2 APARTMENT,hourly; !- [J]
Output:Meter:Cumulative,Electricity:Zone:F8 N2 APARTMENT,hourly; !- [J]
Output:Meter,InteriorLights:Electricity:Zone:F8 N2 APARTMENT,hourly; !- [J]
Output:Meter:Cumulative,InteriorLights:Electricity:Zone:F8 N2 APARTMENT,hourly; !- [J]
Output:Meter,Electricity:Zone:F8 NE APARTMENT,hourly; !- [J]
Output:Meter:Cumulative,Electricity:Zone:F8 NE APARTMENT,hourly; !- [J]
Output:Meter,InteriorLights:Electricity:Zone:F8 NE APARTMENT,hourly; !- [J]
Output:Meter:Cumulative,InteriorLights:Electricity:Zone:F8 NE APARTMENT,hourly; !- [J]
Output:Meter,Electricity:Zone:F8 NW APARTMENT,hourly; !- [J]
Output:Meter:Cumulative,Electricity:Zone:F8 NW APARTMENT,hourly; !- [J]
Output:Meter,InteriorLights:Electricity:Zone:F8 NW APARTMENT,hourly; !- [J]
Output:Meter:Cumulative,InteriorLights:Electricity:Zone:F8 NW APARTMENT,hourly; !- [J]
Output:Meter,Electricity:Zone:F8 S1 APARTMENT,hourly; !- [J]
Output:Meter:Cumulative,Electricity:Zone:F8 S1 APARTMENT,hourly; !- [J]
Output:Meter,InteriorLights:Electricity:Zone:F8 S1 APARTMENT,hourly; !- [J]
Output:Meter:Cumulative,InteriorLights:Electricity:Zone:F8 S1 APARTMENT,hourly; !- [J]
Output:Meter,Electricity:Zone:F8 S2 APARTMENT,hourly; !- [J]
Output:Meter:Cumulative,Electricity:Zone:F8 S2 APARTMENT,hourly; !- [J]
Output:Meter,InteriorLights:Electricity:Zone:F8 S2 APARTMENT,hourly; !- [J]
Output:Meter:Cumulative,InteriorLights:Electricity:Zone:F8 S2 APARTMENT,hourly; !- [J]
Output:Meter,Electricity:Zone:F8 SE APARTMENT,hourly; !- [J]
Output:Meter:Cumulative,Electricity:Zone:F8 SE APARTMENT,hourly; !- [J]
Output:Meter,InteriorLights:Electricity:Zone:F8 SE APARTMENT,hourly; !- [J]
Output:Meter:Cumulative,InteriorLights:Electricity:Zone:F8 SE APARTMENT,hourly; !- [J]
Output:Meter,Electricity:Zone:F8 SW APARTMENT,hourly; !- [J]
Output:Meter:Cumulative,Electricity:Zone:F8 SW APARTMENT,hourly; !- [J]
Output:Meter,InteriorLights:Electricity:Zone:F8 SW APARTMENT,hourly; !- [J]
Output:Meter:Cumulative,InteriorLights:Electricity:Zone:F8 SW APARTMENT,hourly; !- [J]
Output:Meter,Electricity:Zone:F9 CORRIDOR,hourly; !- [J]
Output:Meter:Cumulative,Electricity:Zone:F9 CORRIDOR,hourly; !- [J]
Output:Meter,InteriorLights:Electricity:Zone:F9 CORRIDOR,hourly; !- [J]
Output:Meter:Cumulative,InteriorLights:Electricity:Zone:F9 CORRIDOR,hourly; !- [J]
Output:Meter,Electricity:Zone:F9 N1 APARTMENT,hourly; !- [J]
Output:Meter:Cumulative,Electricity:Zone:F9 N1 APARTMENT,hourly; !- [J]
Output:Meter,InteriorLights:Electricity:Zone:F9 N1 APARTMENT,hourly; !- [J]
Output:Meter:Cumulative,InteriorLights:Electricity:Zone:F9 N1 APARTMENT,hourly; !- [J]
Output:Meter,Electricity:Zone:F9 N2 APARTMENT,hourly; !- [J]
Output:Meter:Cumulative,Electricity:Zone:F9 N2 APARTMENT,hourly; !- [J]
Output:Meter,InteriorLights:Electricity:Zone:F9 N2 APARTMENT,hourly; !- [J]
Output:Meter:Cumulative,InteriorLights:Electricity:Zone:F9 N2 APARTMENT,hourly; !- [J]
Output:Meter,Electricity:Zone:F9 NE APARTMENT,hourly; !- [J]
Output:Meter:Cumulative,Electricity:Zone:F9 NE APARTMENT,hourly; !- [J]
Output:Meter,InteriorLights:Electricity:Zone:F9 NE APARTMENT,hourly; !- [J]
Output:Meter:Cumulative,InteriorLights:Electricity:Zone:F9 NE APARTMENT,hourly; !- [J]
Output:Meter,Electricity:Zone:F9 NW APARTMENT,hourly; !- [J]
Output:Meter:Cumulative,Electricity:Zone:F9 NW APARTMENT,hourly; !- [J]
Output:Meter,InteriorLights:Electricity:Zone:F9 NW APARTMENT,hourly; !- [J]
Output:Meter:Cumulative,InteriorLights:Electricity:Zone:F9 NW APARTMENT,hourly; !- [J]
Output:Meter,Electricity:Zone:F9 S1 APARTMENT,hourly; !- [J]
Output:Meter:Cumulative,Electricity:Zone:F9 S1 APARTMENT,hourly; !- [J]
Output:Meter,InteriorLights:Electricity:Zone:F9 S1 APARTMENT,hourly; !- [J]
Output:Meter:Cumulative,InteriorLights:Electricity:Zone:F9 S1 APARTMENT,hourly; !- [J]
Output:Meter,Electricity:Zone:F9 S2 APARTMENT,hourly; !- [J]
Output:Meter:Cumulative,Electricity:Zone:F9 S2 APARTMENT,hourly; !- [J]
Output:Meter,InteriorLights:Electricity:Zone:F9 S2 APARTMENT,hourly; !- [J]
Output:Meter:Cumulative,InteriorLights:Electricity:Zone:F9 S2 APARTMENT,hourly; !- [J]
Output:Meter,Electricity:Zone:F9 SE APARTMENT,hourly; !- [J]
Output:Meter:Cumulative,Electricity:Zone:F9 SE APARTMENT,hourly; !- [J]
Output:Meter,InteriorLights:Electricity:Zone:F9 SE APARTMENT,hourly; !- [J]
Output:Meter:Cumulative,InteriorLights:Electricity:Zone:F9 SE APARTMENT,hourly; !- [J]
Output:Meter,Electricity:Zone:F9 SW APARTMENT,hourly; !- [J]
Output:Meter:Cumulative,Electricity:Zone:F9 SW APARTMENT,hourly; !- [J]
Output:Meter,InteriorLights:Electricity:Zone:F9 SW APARTMENT,hourly; !- [J]
Output:Meter:Cumulative,InteriorLights:Electricity:Zone:F9 SW APARTMENT,hourly; !- [J]
Output:Meter,Electricity:Zone:G CORRIDOR,hourly; !- [J]
Output:Meter:Cumulative,Electricity:Zone:G CORRIDOR,hourly; !- [J]
Output:Meter,InteriorLights:Electricity:Zone:G CORRIDOR,hourly; !- [J]
Output:Meter:Cumulative,InteriorLights:Electricity:Zone:G CORRIDOR,hourly; !- [J]
Output:Meter,Electricity:Zone:G N1 APARTMENT,hourly; !- [J]
Output:Meter:Cumulative,Electricity:Zone:G N1 APARTMENT,hourly; !- [J]
Output:Meter,InteriorLights:Electricity:Zone:G N1 APARTMENT,hourly; !- [J]
Output:Meter:Cumulative,InteriorLights:Electricity:Zone:G N1 APARTMENT,hourly; !- [J]
Output:Meter,Electricity:Zone:G N2 APARTMENT,hourly; !- [J]
Output:Meter:Cumulative,Electricity:Zone:G N2 APARTMENT,hourly; !- [J]
Output:Meter,InteriorLights:Electricity:Zone:G N2 APARTMENT,hourly; !- [J]
Output:Meter:Cumulative,InteriorLights:Electricity:Zone:G N2 APARTMENT,hourly; !- [J]
Output:Meter,Electricity:Zone:G NE APARTMENT,hourly; !- [J]
Output:Meter:Cumulative,Electricity:Zone:G NE APARTMENT,hourly; !- [J]
Output:Meter,InteriorLights:Electricity:Zone:G NE APARTMENT,hourly; !- [J]
Output:Meter:Cumulative,InteriorLights:Electricity:Zone:G NE APARTMENT,hourly; !- [J]
Output:Meter,Electricity:Zone:G NW APARTMENT,hourly; !- [J]
Output:Meter:Cumulative,Electricity:Zone:G NW APARTMENT,hourly; !- [J]
Output:Meter,InteriorLights:Electricity:Zone:G NW APARTMENT,hourly; !- [J]
Output:Meter:Cumulative,InteriorLights:Electricity:Zone:G NW APARTMENT,hourly; !- [J]
Output:Meter,Electricity:Zone:G S1 APARTMENT,hourly; !- [J]
Output:Meter:Cumulative,Electricity:Zone:G S1 APARTMENT,hourly; !- [J]
Output:Meter,InteriorLights:Electricity:Zone:G S1 APARTMENT,hourly; !- [J]
Output:Meter:Cumulative,InteriorLights:Electricity:Zone:G S1 APARTMENT,hourly; !- [J]
Output:Meter,Electricity:Zone:G S2 APARTMENT,hourly; !- [J]
Output:Meter:Cumulative,Electricity:Zone:G S2 APARTMENT,hourly; !- [J]
Output:Meter,InteriorLights:Electricity:Zone:G S2 APARTMENT,hourly; !- [J]
Output:Meter:Cumulative,InteriorLights:Electricity:Zone:G S2 APARTMENT,hourly; !- [J]
Output:Meter,Electricity:Zone:G SW APARTMENT,hourly; !- [J]
Output:Meter:Cumulative,Electricity:Zone:G SW APARTMENT,hourly; !- [J]
Output:Meter,InteriorLights:Electricity:Zone:G SW APARTMENT,hourly; !- [J]
Output:Meter:Cumulative,InteriorLights:Electricity:Zone:G SW APARTMENT,hourly; !- [J]
Output:Meter,Electricity:Zone:M CORRIDOR,hourly; !- [J]
Output:Meter:Cumulative,Electricity:Zone:M CORRIDOR,hourly; !- [J]
Output:Meter,InteriorLights:Electricity:Zone:M CORRIDOR,hourly; !- [J]
Output:Meter:Cumulative,InteriorLights:Electricity:Zone:M CORRIDOR,hourly; !- [J]
Output:Meter,Electricity:Zone:M N1 APARTMENT,hourly; !- [J]
Output:Meter:Cumulative,Electricity:Zone:M N1 APARTMENT,hourly; !- [J]
Output:Meter,InteriorLights:Electricity:Zone:M N1 APARTMENT,hourly; !- [J]
Output:Meter:Cumulative,InteriorLights:Electricity:Zone:M N1 APARTMENT,hourly; !- [J]
Output:Meter,Electricity:Zone:M N2 APARTMENT,hourly; !- [J]
Output:Meter:Cumulative,Electricity:Zone:M N2 APARTMENT,hourly; !- [J]
Output:Meter,InteriorLights:Electricity:Zone:M N2 APARTMENT,hourly; !- [J]
Output:Meter:Cumulative,InteriorLights:Electricity:Zone:M N2 APARTMENT,hourly; !- [J]
Output:Meter,Electricity:Zone:M NE APARTMENT,hourly; !- [J]
Output:Meter:Cumulative,Electricity:Zone:M NE APARTMENT,hourly; !- [J]
Output:Meter,InteriorLights:Electricity:Zone:M NE APARTMENT,hourly; !- [J]
Output:Meter:Cumulative,InteriorLights:Electricity:Zone:M NE APARTMENT,hourly; !- [J]
Output:Meter,Electricity:Zone:M NW APARTMENT,hourly; !- [J]
Output:Meter:Cumulative,Electricity:Zone:M NW APARTMENT,hourly; !- [J]
Output:Meter,InteriorLights:Electricity:Zone:M NW APARTMENT,hourly; !- [J]
Output:Meter:Cumulative,InteriorLights:Electricity:Zone:M NW APARTMENT,hourly; !- [J]
Output:Meter,Electricity:Zone:M S1 APARTMENT,hourly; !- [J]
Output:Meter:Cumulative,Electricity:Zone:M S1 APARTMENT,hourly; !- [J]
Output:Meter,InteriorLights:Electricity:Zone:M S1 APARTMENT,hourly; !- [J]
Output:Meter:Cumulative,InteriorLights:Electricity:Zone:M S1 APARTMENT,hourly; !- [J]
Output:Meter,Electricity:Zone:M S2 APARTMENT,hourly; !- [J]
Output:Meter:Cumulative,Electricity:Zone:M S2 APARTMENT,hourly; !- [J]
Output:Meter,InteriorLights:Electricity:Zone:M S2 APARTMENT,hourly; !- [J]
Output:Meter:Cumulative,InteriorLights:Electricity:Zone:M S2 APARTMENT,hourly; !- [J]
Output:Meter,Electricity:Zone:M SE APARTMENT,hourly; !- [J]
Output:Meter:Cumulative,Electricity:Zone:M SE APARTMENT,hourly; !- [J]
Output:Meter,InteriorLights:Electricity:Zone:M SE APARTMENT,hourly; !- [J]
Output:Meter:Cumulative,InteriorLights:Electricity:Zone:M SE APARTMENT,hourly; !- [J]
Output:Meter,Electricity:Zone:M SW APARTMENT,hourly; !- [J]
Output:Meter:Cumulative,Electricity:Zone:M SW APARTMENT,hourly; !- [J]
Output:Meter,InteriorLights:Electricity:Zone:M SW APARTMENT,hourly; !- [J]
Output:Meter:Cumulative,InteriorLights:Electricity:Zone:M SW APARTMENT,hourly; !- [J]
Output:Meter,Electricity:Zone:OFFICE,hourly; !- [J]
Output:Meter:Cumulative,Electricity:Zone:OFFICE,hourly; !- [J]
Output:Meter,InteriorLights:Electricity:Zone:OFFICE,hourly; !- [J]
Output:Meter:Cumulative,InteriorLights:Electricity:Zone:OFFICE,hourly; !- [J]
Output:Meter,Electricity:Zone:T CORRIDOR,hourly; !- [J]
Output:Meter:Cumulative,Electricity:Zone:T CORRIDOR,hourly; !- [J]
Output:Meter,InteriorLights:Electricity:Zone:T CORRIDOR,hourly; !- [J]
Output:Meter:Cumulative,InteriorLights:Electricity:Zone:T CORRIDOR,hourly; !- [J]
Output:Meter,Electricity:Zone:T N1 APARTMENT,hourly; !- [J]
Output:Meter:Cumulative,Electricity:Zone:T N1 APARTMENT,hourly; !- [J]
Output:Meter,InteriorLights:Electricity:Zone:T N1 APARTMENT,hourly; !- [J]
Output:Meter:Cumulative,InteriorLights:Electricity:Zone:T N1 APARTMENT,hourly; !- [J]
Output:Meter,Electricity:Zone:T N2 APARTMENT,hourly; !- [J]
Output:Meter:Cumulative,Electricity:Zone:T N2 APARTMENT,hourly; !- [J]
Output:Meter,InteriorLights:Electricity:Zone:T N2 APARTMENT,hourly; !- [J]
Output:Meter:Cumulative,InteriorLights:Electricity:Zone:T N2 APARTMENT,hourly; !- [J]
Output:Meter,Electricity:Zone:T NE APARTMENT,hourly; !- [J]
Output:Meter:Cumulative,Electricity:Zone:T NE APARTMENT,hourly; !- [J]
Output:Meter,InteriorLights:Electricity:Zone:T NE APARTMENT,hourly; !- [J]
Output:Meter:Cumulative,InteriorLights:Electricity:Zone:T NE APARTMENT,hourly; !- [J]
Output:Meter,Electricity:Zone:T NW APARTMENT,hourly; !- [J]
Output:Meter:Cumulative,Electricity:Zone:T NW APARTMENT,hourly; !- [J]
Output:Meter,InteriorLights:Electricity:Zone:T NW APARTMENT,hourly; !- [J]
Output:Meter:Cumulative,InteriorLights:Electricity:Zone:T NW APARTMENT,hourly; !- [J]
Output:Meter,Electricity:Zone:T S1 APARTMENT,hourly; !- [J]
Output:Meter:Cumulative,Electricity:Zone:T S1 APARTMENT,hourly; !- [J]
Output:Meter,InteriorLights:Electricity:Zone:T S1 APARTMENT,hourly; !- [J]
Output:Meter:Cumulative,InteriorLights:Electricity:Zone:T S1 APARTMENT,hourly; !- [J]
Output:Meter,Electricity:Zone:T S2 APARTMENT,hourly; !- [J]
Output:Meter:Cumulative,Electricity:Zone:T S2 APARTMENT,hourly; !- [J]
Output:Meter,InteriorLights:Electricity:Zone:T S2 APARTMENT,hourly; !- [J]
Output:Meter:Cumulative,InteriorLights:Electricity:Zone:T S2 APARTMENT,hourly; !- [J]
Output:Meter,Electricity:Zone:T SE APARTMENT,hourly; !- [J]
Output:Meter:Cumulative,Electricity:Zone:T SE APARTMENT,hourly; !- [J]
Output:Meter,InteriorLights:Electricity:Zone:T SE APARTMENT,hourly; !- [J]
Output:Meter:Cumulative,InteriorLights:Electricity:Zone:T SE APARTMENT,hourly; !- [J]
Output:Meter,Electricity:Zone:T SW APARTMENT,hourly; !- [J]
Output:Meter:Cumulative,Electricity:Zone:T SW APARTMENT,hourly; !- [J]
Output:Meter,InteriorLights:Electricity:Zone:T SW APARTMENT,hourly; !- [J]
Output:Meter:Cumulative,InteriorLights:Electricity:Zone:T SW APARTMENT,hourly; !- [J]
Output:Meter,InteriorEquipment:Electricity,hourly; !- [J]
Output:Meter:Cumulative,InteriorEquipment:Electricity,hourly; !- [J]
Output:Meter,InteriorEquipment:Electricity:Zone:T CORRIDOR,hourly; !- [J]
Output:Meter:Cumulative,InteriorEquipment:Electricity:Zone:T CORRIDOR,hourly; !- [J]
Output:Meter,ElevatorLightsFan:InteriorEquipment:Electricity,hourly; !- [J]
Output:Meter:Cumulative,ElevatorLightsFan:InteriorEquipment:Electricity,hourly; !- [J]
Output:Meter,InteriorEquipment:Electricity:Zone:F2 N1 APARTMENT,hourly; !- [J]
Output:Meter:Cumulative,InteriorEquipment:Electricity:Zone:F2 N1 APARTMENT,hourly; !- [J]
Output:Meter,MiscPlug:InteriorEquipment:Electricity,hourly; !- [J]
Output:Meter:Cumulative,MiscPlug:InteriorEquipment:Electricity,hourly; !- [J]
Output:Meter,InteriorEquipment:Electricity:Zone:F2 N2 APARTMENT,hourly; !- [J]
Output:Meter:Cumulative,InteriorEquipment:Electricity:Zone:F2 N2 APARTMENT,hourly; !- [J]
Output:Meter,InteriorEquipment:Electricity:Zone:F2 NE APARTMENT,hourly; !- [J]
Output:Meter:Cumulative,InteriorEquipment:Electricity:Zone:F2 NE APARTMENT,hourly; !- [J]
Output:Meter,InteriorEquipment:Electricity:Zone:F2 NW APARTMENT,hourly; !- [J]
Output:Meter:Cumulative,InteriorEquipment:Electricity:Zone:F2 NW APARTMENT,hourly; !- [J]
Output:Meter,InteriorEquipment:Electricity:Zone:F2 S1 APARTMENT,hourly; !- [J]
Output:Meter:Cumulative,InteriorEquipment:Electricity:Zone:F2 S1 APARTMENT,hourly; !- [J]
Output:Meter,InteriorEquipment:Electricity:Zone:F2 S2 APARTMENT,hourly; !- [J]
Output:Meter:Cumulative,InteriorEquipment:Electricity:Zone:F2 S2 APARTMENT,hourly; !- [J]
Output:Meter,InteriorEquipment:Electricity:Zone:F2 SE APARTMENT,hourly; !- [J]
Output:Meter:Cumulative,InteriorEquipment:Electricity:Zone:F2 SE APARTMENT,hourly; !- [J]
Output:Meter,InteriorEquipment:Electricity:Zone:F2 SW APARTMENT,hourly; !- [J]
Output:Meter:Cumulative,InteriorEquipment:Electricity:Zone:F2 SW APARTMENT,hourly; !- [J]
Output:Meter,InteriorEquipment:Electricity:Zone:F3 N1 APARTMENT,hourly; !- [J]
Output:Meter:Cumulative,InteriorEquipment:Electricity:Zone:F3 N1 APARTMENT,hourly; !- [J]
Output:Meter,InteriorEquipment:Electricity:Zone:F3 N2 APARTMENT,hourly; !- [J]
Output:Meter:Cumulative,InteriorEquipment:Electricity:Zone:F3 N2 APARTMENT,hourly; !- [J]
Output:Meter,InteriorEquipment:Electricity:Zone:F3 NE APARTMENT,hourly; !- [J]
Output:Meter:Cumulative,InteriorEquipment:Electricity:Zone:F3 NE APARTMENT,hourly; !- [J]
Output:Meter,InteriorEquipment:Electricity:Zone:F3 NW APARTMENT,hourly; !- [J]
Output:Meter:Cumulative,InteriorEquipment:Electricity:Zone:F3 NW APARTMENT,hourly; !- [J]
Output:Meter,InteriorEquipment:Electricity:Zone:F3 S1 APARTMENT,hourly; !- [J]
Output:Meter:Cumulative,InteriorEquipment:Electricity:Zone:F3 S1 APARTMENT,hourly; !- [J]
Output:Meter,InteriorEquipment:Electricity:Zone:F3 S2 APARTMENT,hourly; !- [J]
Output:Meter:Cumulative,InteriorEquipment:Electricity:Zone:F3 S2 APARTMENT,hourly; !- [J]
Output:Meter,InteriorEquipment:Electricity:Zone:F3 SE APARTMENT,hourly; !- [J]
Output:Meter:Cumulative,InteriorEquipment:Electricity:Zone:F3 SE APARTMENT,hourly; !- [J]
Output:Meter,InteriorEquipment:Electricity:Zone:F3 SW APARTMENT,hourly; !- [J]
Output:Meter:Cumulative,InteriorEquipment:Electricity:Zone:F3 SW APARTMENT,hourly; !- [J]
Output:Meter,InteriorEquipment:Electricity:Zone:F4 N1 APARTMENT,hourly; !- [J]
Output:Meter:Cumulative,InteriorEquipment:Electricity:Zone:F4 N1 APARTMENT,hourly; !- [J]
Output:Meter,InteriorEquipment:Electricity:Zone:F4 N2 APARTMENT,hourly; !- [J]
Output:Meter:Cumulative,InteriorEquipment:Electricity:Zone:F4 N2 APARTMENT,hourly; !- [J]
Output:Meter,InteriorEquipment:Electricity:Zone:F4 NE APARTMENT,hourly; !- [J]
Output:Meter:Cumulative,InteriorEquipment:Electricity:Zone:F4 NE APARTMENT,hourly; !- [J]
Output:Meter,InteriorEquipment:Electricity:Zone:F4 NW APARTMENT,hourly; !- [J]
Output:Meter:Cumulative,InteriorEquipment:Electricity:Zone:F4 NW APARTMENT,hourly; !- [J]
Output:Meter,InteriorEquipment:Electricity:Zone:F4 S1 APARTMENT,hourly; !- [J]
Output:Meter:Cumulative,InteriorEquipment:Electricity:Zone:F4 S1 APARTMENT,hourly; !- [J]
Output:Meter,InteriorEquipment:Electricity:Zone:F4 S2 APARTMENT,hourly; !- [J]
Output:Meter:Cumulative,InteriorEquipment:Electricity:Zone:F4 S2 APARTMENT,hourly; !- [J]
Output:Meter,InteriorEquipment:Electricity:Zone:F4 SE APARTMENT,hourly; !- [J]
Output:Meter:Cumulative,InteriorEquipment:Electricity:Zone:F4 SE APARTMENT,hourly; !- [J]
Output:Meter,InteriorEquipment:Electricity:Zone:F4 SW APARTMENT,hourly; !- [J]
Output:Meter:Cumulative,InteriorEquipment:Electricity:Zone:F4 SW APARTMENT,hourly; !- [J]
Output:Meter,InteriorEquipment:Electricity:Zone:F6 N1 APARTMENT,hourly; !- [J]
Output:Meter:Cumulative,InteriorEquipment:Electricity:Zone:F6 N1 APARTMENT,hourly; !- [J]
Output:Meter,InteriorEquipment:Electricity:Zone:F6 N2 APARTMENT,hourly; !- [J]
Output:Meter:Cumulative,InteriorEquipment:Electricity:Zone:F6 N2 APARTMENT,hourly; !- [J]
Output:Meter,InteriorEquipment:Electricity:Zone:F6 NE APARTMENT,hourly; !- [J]
Output:Meter:Cumulative,InteriorEquipment:Electricity:Zone:F6 NE APARTMENT,hourly; !- [J]
Output:Meter,InteriorEquipment:Electricity:Zone:F6 NW APARTMENT,hourly; !- [J]
Output:Meter:Cumulative,InteriorEquipment:Electricity:Zone:F6 NW APARTMENT,hourly; !- [J]
Output:Meter,InteriorEquipment:Electricity:Zone:F6 S1 APARTMENT,hourly; !- [J]
Output:Meter:Cumulative,InteriorEquipment:Electricity:Zone:F6 S1 APARTMENT,hourly; !- [J]
Output:Meter,InteriorEquipment:Electricity:Zone:F6 S2 APARTMENT,hourly; !- [J]
Output:Meter:Cumulative,InteriorEquipment:Electricity:Zone:F6 S2 APARTMENT,hourly; !- [J]
Output:Meter,InteriorEquipment:Electricity:Zone:F6 SE APARTMENT,hourly; !- [J]
Output:Meter:Cumulative,InteriorEquipment:Electricity:Zone:F6 SE APARTMENT,hourly; !- [J]
Output:Meter,InteriorEquipment:Electricity:Zone:F6 SW APARTMENT,hourly; !- [J]
Output:Meter:Cumulative,InteriorEquipment:Electricity:Zone:F6 SW APARTMENT,hourly; !- [J]
Output:Meter,InteriorEquipment:Electricity:Zone:F7 N1 APARTMENT,hourly; !- [J]
Output:Meter:Cumulative,InteriorEquipment:Electricity:Zone:F7 N1 APARTMENT,hourly; !- [J]
Output:Meter,InteriorEquipment:Electricity:Zone:F7 N2 APARTMENT,hourly; !- [J]
Output:Meter:Cumulative,InteriorEquipment:Electricity:Zone:F7 N2 APARTMENT,hourly; !- [J]
Output:Meter,InteriorEquipment:Electricity:Zone:F7 NE APARTMENT,hourly; !- [J]
Output:Meter:Cumulative,InteriorEquipment:Electricity:Zone:F7 NE APARTMENT,hourly; !- [J]
Output:Meter,InteriorEquipment:Electricity:Zone:F7 NW APARTMENT,hourly; !- [J]
Output:Meter:Cumulative,InteriorEquipment:Electricity:Zone:F7 NW APARTMENT,hourly; !- [J]
Output:Meter,InteriorEquipment:Electricity:Zone:F7 S1 APARTMENT,hourly; !- [J]
Output:Meter:Cumulative,InteriorEquipment:Electricity:Zone:F7 S1 APARTMENT,hourly; !- [J]
Output:Meter,InteriorEquipment:Electricity:Zone:F7 S2 APARTMENT,hourly; !- [J]
Output:Meter:Cumulative,InteriorEquipment:Electricity:Zone:F7 S2 APARTMENT,hourly; !- [J]
Output:Meter,InteriorEquipment:Electricity:Zone:F7 SE APARTMENT,hourly; !- [J]
Output:Meter:Cumulative,InteriorEquipment:Electricity:Zone:F7 SE APARTMENT,hourly; !- [J]
Output:Meter,InteriorEquipment:Electricity:Zone:F7 SW APARTMENT,hourly; !- [J]
Output:Meter:Cumulative,InteriorEquipment:Electricity:Zone:F7 SW APARTMENT,hourly; !- [J]
Output:Meter,InteriorEquipment:Electricity:Zone:F8 N1 APARTMENT,hourly; !- [J]
Output:Meter:Cumulative,InteriorEquipment:Electricity:Zone:F8 N1 APARTMENT,hourly; !- [J]
Output:Meter,InteriorEquipment:Electricity:Zone:F8 N2 APARTMENT,hourly; !- [J]
Output:Meter:Cumulative,InteriorEquipment:Electricity:Zone:F8 N2 APARTMENT,hourly; !- [J]
Output:Meter,InteriorEquipment:Electricity:Zone:F8 NE APARTMENT,hourly; !- [J]
Output:Meter:Cumulative,InteriorEquipment:Electricity:Zone:F8 NE APARTMENT,hourly; !- [J]
Output:Meter,InteriorEquipment:Electricity:Zone:F8 NW APARTMENT,hourly; !- [J]
Output:Meter:Cumulative,InteriorEquipment:Electricity:Zone:F8 NW APARTMENT,hourly; !- [J]
Output:Meter,InteriorEquipment:Electricity:Zone:F8 S1 APARTMENT,hourly; !- [J]
Output:Meter:Cumulative,InteriorEquipment:Electricity:Zone:F8 S1 APARTMENT,hourly; !- [J]
Output:Meter,InteriorEquipment:Electricity:Zone:F8 S2 APARTMENT,hourly; !- [J]
Output:Meter:Cumulative,InteriorEquipment:Electricity:Zone:F8 S2 APARTMENT,hourly; !- [J]
Output:Meter,InteriorEquipment:Electricity:Zone:F8 SE APARTMENT,hourly; !- [J]
Output:Meter:Cumulative,InteriorEquipment:Electricity:Zone:F8 SE APARTMENT,hourly; !- [J]
Output:Meter,InteriorEquipment:Electricity:Zone:F8 SW APARTMENT,hourly; !- [J]
Output:Meter:Cumulative,InteriorEquipment:Electricity:Zone:F8 SW APARTMENT,hourly; !- [J]
Output:Meter,InteriorEquipment:Electricity:Zone:F9 N1 APARTMENT,hourly; !- [J]
Output:Meter:Cumulative,InteriorEquipment:Electricity:Zone:F9 N1 APARTMENT,hourly; !- [J]
Output:Meter,InteriorEquipment:Electricity:Zone:F9 N2 APARTMENT,hourly; !- [J]
Output:Meter:Cumulative,InteriorEquipment:Electricity:Zone:F9 N2 APARTMENT,hourly; !- [J]
Output:Meter,InteriorEquipment:Electricity:Zone:F9 NE APARTMENT,hourly; !- [J]
Output:Meter:Cumulative,InteriorEquipment:Electricity:Zone:F9 NE APARTMENT,hourly; !- [J]
Output:Meter,InteriorEquipment:Electricity:Zone:F9 NW APARTMENT,hourly; !- [J]
Output:Meter:Cumulative,InteriorEquipment:Electricity:Zone:F9 NW APARTMENT,hourly; !- [J]
Output:Meter,InteriorEquipment:Electricity:Zone:F9 S1 APARTMENT,hourly; !- [J]
Output:Meter:Cumulative,InteriorEquipment:Electricity:Zone:F9 S1 APARTMENT,hourly; !- [J]
Output:Meter,InteriorEquipment:Electricity:Zone:F9 S2 APARTMENT,hourly; !- [J]
Output:Meter:Cumulative,InteriorEquipment:Electricity:Zone:F9 S2 APARTMENT,hourly; !- [J]
Output:Meter,InteriorEquipment:Electricity:Zone:F9 SE APARTMENT,hourly; !- [J]
Output:Meter:Cumulative,InteriorEquipment:Electricity:Zone:F9 SE APARTMENT,hourly; !- [J]
Output:Meter,InteriorEquipment:Electricity:Zone:F9 SW APARTMENT,hourly; !- [J]
Output:Meter:Cumulative,InteriorEquipment:Electricity:Zone:F9 SW APARTMENT,hourly; !- [J]
Output:Meter,InteriorEquipment:Electricity:Zone:G N1 APARTMENT,hourly; !- [J]
Output:Meter:Cumulative,InteriorEquipment:Electricity:Zone:G N1 APARTMENT,hourly; !- [J]
Output:Meter,InteriorEquipment:Electricity:Zone:G N2 APARTMENT,hourly; !- [J]
Output:Meter:Cumulative,InteriorEquipment:Electricity:Zone:G N2 APARTMENT,hourly; !- [J]
Output:Meter,InteriorEquipment:Electricity:Zone:G NE APARTMENT,hourly; !- [J]
Output:Meter:Cumulative,InteriorEquipment:Electricity:Zone:G NE APARTMENT,hourly; !- [J]
Output:Meter,InteriorEquipment:Electricity:Zone:G NW APARTMENT,hourly; !- [J]
Output:Meter:Cumulative,InteriorEquipment:Electricity:Zone:G NW APARTMENT,hourly; !- [J]
Output:Meter,InteriorEquipment:Electricity:Zone:G S1 APARTMENT,hourly; !- [J]
Output:Meter:Cumulative,InteriorEquipment:Electricity:Zone:G S1 APARTMENT,hourly; !- [J]
Output:Meter,InteriorEquipment:Electricity:Zone:G S2 APARTMENT,hourly; !- [J]
Output:Meter:Cumulative,InteriorEquipment:Electricity:Zone:G S2 APARTMENT,hourly; !- [J]
Output:Meter,InteriorEquipment:Electricity:Zone:G SW APARTMENT,hourly; !- [J]
Output:Meter:Cumulative,InteriorEquipment:Electricity:Zone:G SW APARTMENT,hourly; !- [J]
Output:Meter,InteriorEquipment:Electricity:Zone:M N1 APARTMENT,hourly; !- [J]
Output:Meter:Cumulative,InteriorEquipment:Electricity:Zone:M N1 APARTMENT,hourly; !- [J]
Output:Meter,InteriorEquipment:Electricity:Zone:M N2 APARTMENT,hourly; !- [J]
Output:Meter:Cumulative,InteriorEquipment:Electricity:Zone:M N2 APARTMENT,hourly; !- [J]
Output:Meter,InteriorEquipment:Electricity:Zone:M NE APARTMENT,hourly; !- [J]
Output:Meter:Cumulative,InteriorEquipment:Electricity:Zone:M NE APARTMENT,hourly; !- [J]
Output:Meter,InteriorEquipment:Electricity:Zone:M NW APARTMENT,hourly; !- [J]
Output:Meter:Cumulative,InteriorEquipment:Electricity:Zone:M NW APARTMENT,hourly; !- [J]
Output:Meter,InteriorEquipment:Electricity:Zone:M S1 APARTMENT,hourly; !- [J]
Output:Meter:Cumulative,InteriorEquipment:Electricity:Zone:M S1 APARTMENT,hourly; !- [J]
Output:Meter,InteriorEquipment:Electricity:Zone:M S2 APARTMENT,hourly; !- [J]
Output:Meter:Cumulative,InteriorEquipment:Electricity:Zone:M S2 APARTMENT,hourly; !- [J]
Output:Meter,InteriorEquipment:Electricity:Zone:M SE APARTMENT,hourly; !- [J]
Output:Meter:Cumulative,InteriorEquipment:Electricity:Zone:M SE APARTMENT,hourly; !- [J]
Output:Meter,InteriorEquipment:Electricity:Zone:M SW APARTMENT,hourly; !- [J]
Output:Meter:Cumulative,InteriorEquipment:Electricity:Zone:M SW APARTMENT,hourly; !- [J]
Output:Meter,InteriorEquipment:Electricity:Zone:OFFICE,hourly; !- [J]
Output:Meter:Cumulative,InteriorEquipment:Electricity:Zone:OFFICE,hourly; !- [J]
Output:Meter,ElevatorLift:InteriorEquipment:Electricity,hourly; !- [J]
Output:Meter:Cumulative,ElevatorLift:InteriorEquipment:Electricity,hourly; !- [J]
Output:Meter,InteriorEquipment:Electricity:Zone:T N1 APARTMENT,hourly; !- [J]
Output:Meter:Cumulative,InteriorEquipment:Electricity:Zone:T N1 APARTMENT,hourly; !- [J]
Output:Meter,InteriorEquipment:Electricity:Zone:T N2 APARTMENT,hourly; !- [J]
Output:Meter:Cumulative,InteriorEquipment:Electricity:Zone:T N2 APARTMENT,hourly; !- [J]
Output:Meter,InteriorEquipment:Electricity:Zone:T NE APARTMENT,hourly; !- [J]
Output:Meter:Cumulative,InteriorEquipment:Electricity:Zone:T NE APARTMENT,hourly; !- [J]
Output:Meter,InteriorEquipment:Electricity:Zone:T NW APARTMENT,hourly; !- [J]
Output:Meter:Cumulative,InteriorEquipment:Electricity:Zone:T NW APARTMENT,hourly; !- [J]
Output:Meter,InteriorEquipment:Electricity:Zone:T S1 APARTMENT,hourly; !- [J]
Output:Meter:Cumulative,InteriorEquipment:Electricity:Zone:T S1 APARTMENT,hourly; !- [J]
Output:Meter,InteriorEquipment:Electricity:Zone:T S2 APARTMENT,hourly; !- [J]
Output:Meter:Cumulative,InteriorEquipment:Electricity:Zone:T S2 APARTMENT,hourly; !- [J]
Output:Meter,InteriorEquipment:Electricity:Zone:T SE APARTMENT,hourly; !- [J]
Output:Meter:Cumulative,InteriorEquipment:Electricity:Zone:T SE APARTMENT,hourly; !- [J]
Output:Meter,InteriorEquipment:Electricity:Zone:T SW APARTMENT,hourly; !- [J]
Output:Meter:Cumulative,InteriorEquipment:Electricity:Zone:T SW APARTMENT,hourly; !- [J]
Output:Meter,PlantLoopHeatingDemand:Facility,hourly; !- [J]
Output:Meter:Cumulative,PlantLoopHeatingDemand:Facility,hourly; !- [J]
Output:Meter,PlantLoopHeatingDemand:Plant,hourly; !- [J]
Output:Meter:Cumulative,PlantLoopHeatingDemand:Plant,hourly; !- [J]
Output:Meter,WaterSystems:PlantLoopHeatingDemand,hourly; !- [J]
Output:Meter:Cumulative,WaterSystems:PlantLoopHeatingDemand,hourly; !- [J]
Output:Meter,Water Heater:WaterSystems:PlantLoopHeatingDemand,hourly; !- [J]
Output:Meter:Cumulative,Water Heater:WaterSystems:PlantLoopHeatingDemand,hourly; !- [J]
Output:Meter,Gas:Facility,hourly; !- [J]
Output:Meter:Cumulative,Gas:Facility,hourly; !- [J]
Output:Meter,Gas:Plant,hourly; !- [J]
Output:Meter:Cumulative,Gas:Plant,hourly; !- [J]
Output:Meter,WaterSystems:Gas,hourly; !- [J]
Output:Meter:Cumulative,WaterSystems:Gas,hourly; !- [J]
Output:Meter,Water Heater:WaterSystems:Gas,hourly; !- [J]
Output:Meter:Cumulative,Water Heater:WaterSystems:Gas,hourly; !- [J]
Output:Meter,Water:Facility,hourly; !- [m3]
Output:Meter:Cumulative,Water:Facility,hourly; !- [m3]
Output:Meter,Water:Plant,hourly; !- [m3]
Output:Meter:Cumulative,Water:Plant,hourly; !- [m3]
Output:Meter,WaterSystems:Water,hourly; !- [m3]
Output:Meter:Cumulative,WaterSystems:Water,hourly; !- [m3]
Output:Meter,Water Heater:WaterSystems:Water,hourly; !- [m3]
Output:Meter:Cumulative,Water Heater:WaterSystems:Water,hourly; !- [m3]
Output:Meter,MainsWater:Facility,hourly; !- [m3]
Output:Meter:Cumulative,MainsWater:Facility,hourly; !- [m3]
Output:Meter,MainsWater:Plant,hourly; !- [m3]
Output:Meter:Cumulative,MainsWater:Plant,hourly; !- [m3]
Output:Meter,WaterSystems:MainsWater,hourly; !- [m3]
Output:Meter:Cumulative,WaterSystems:MainsWater,hourly; !- [m3]
Output:Meter,Water Heater:WaterSystems:MainsWater,hourly; !- [m3]
Output:Meter:Cumulative,Water Heater:WaterSystems:MainsWater,hourly; !- [m3]
Output:Meter,Fans:Electricity,hourly; !- [J]
Output:Meter:Cumulative,Fans:Electricity,hourly; !- [J]
Output:Meter,Fans:Electricity:Zone:F2 N1 APARTMENT,hourly; !- [J]
Output:Meter:Cumulative,Fans:Electricity:Zone:F2 N1 APARTMENT,hourly; !- [J]
Output:Meter,Ventilation (simple):Fans:Electricity,hourly; !- [J]
Output:Meter:Cumulative,Ventilation (simple):Fans:Electricity,hourly; !- [J]
Output:Meter,Fans:Electricity:Zone:F2 N2 APARTMENT,hourly; !- [J]
Output:Meter:Cumulative,Fans:Electricity:Zone:F2 N2 APARTMENT,hourly; !- [J]
Output:Meter,Fans:Electricity:Zone:F2 NE APARTMENT,hourly; !- [J]
Output:Meter:Cumulative,Fans:Electricity:Zone:F2 NE APARTMENT,hourly; !- [J]
Output:Meter,Fans:Electricity:Zone:F2 NW APARTMENT,hourly; !- [J]
Output:Meter:Cumulative,Fans:Electricity:Zone:F2 NW APARTMENT,hourly; !- [J]
Output:Meter,Fans:Electricity:Zone:F2 S1 APARTMENT,hourly; !- [J]
Output:Meter:Cumulative,Fans:Electricity:Zone:F2 S1 APARTMENT,hourly; !- [J]
Output:Meter,Fans:Electricity:Zone:F2 S2 APARTMENT,hourly; !- [J]
Output:Meter:Cumulative,Fans:Electricity:Zone:F2 S2 APARTMENT,hourly; !- [J]
Output:Meter,Fans:Electricity:Zone:F2 SE APARTMENT,hourly; !- [J]
Output:Meter:Cumulative,Fans:Electricity:Zone:F2 SE APARTMENT,hourly; !- [J]
Output:Meter,Fans:Electricity:Zone:F2 SW APARTMENT,hourly; !- [J]
Output:Meter:Cumulative,Fans:Electricity:Zone:F2 SW APARTMENT,hourly; !- [J]
Output:Meter,Fans:Electricity:Zone:F3 N1 APARTMENT,hourly; !- [J]
Output:Meter:Cumulative,Fans:Electricity:Zone:F3 N1 APARTMENT,hourly; !- [J]
Output:Meter,Fans:Electricity:Zone:F3 N2 APARTMENT,hourly; !- [J]
Output:Meter:Cumulative,Fans:Electricity:Zone:F3 N2 APARTMENT,hourly; !- [J]
Output:Meter,Fans:Electricity:Zone:F3 NE APARTMENT,hourly; !- [J]
Output:Meter:Cumulative,Fans:Electricity:Zone:F3 NE APARTMENT,hourly; !- [J]
Output:Meter,Fans:Electricity:Zone:F3 NW APARTMENT,hourly; !- [J]
Output:Meter:Cumulative,Fans:Electricity:Zone:F3 NW APARTMENT,hourly; !- [J]
Output:Meter,Fans:Electricity:Zone:F3 S1 APARTMENT,hourly; !- [J]
Output:Meter:Cumulative,Fans:Electricity:Zone:F3 S1 APARTMENT,hourly; !- [J]
Output:Meter,Fans:Electricity:Zone:F3 S2 APARTMENT,hourly; !- [J]
Output:Meter:Cumulative,Fans:Electricity:Zone:F3 S2 APARTMENT,hourly; !- [J]
Output:Meter,Fans:Electricity:Zone:F3 SE APARTMENT,hourly; !- [J]
Output:Meter:Cumulative,Fans:Electricity:Zone:F3 SE APARTMENT,hourly; !- [J]
Output:Meter,Fans:Electricity:Zone:F3 SW APARTMENT,hourly; !- [J]
Output:Meter:Cumulative,Fans:Electricity:Zone:F3 SW APARTMENT,hourly; !- [J]
Output:Meter,Fans:Electricity:Zone:F4 N1 APARTMENT,hourly; !- [J]
Output:Meter:Cumulative,Fans:Electricity:Zone:F4 N1 APARTMENT,hourly; !- [J]
Output:Meter,Fans:Electricity:Zone:F4 N2 APARTMENT,hourly; !- [J]
Output:Meter:Cumulative,Fans:Electricity:Zone:F4 N2 APARTMENT,hourly; !- [J]
Output:Meter,Fans:Electricity:Zone:F4 NE APARTMENT,hourly; !- [J]
Output:Meter:Cumulative,Fans:Electricity:Zone:F4 NE APARTMENT,hourly; !- [J]
Output:Meter,Fans:Electricity:Zone:F4 NW APARTMENT,hourly; !- [J]
Output:Meter:Cumulative,Fans:Electricity:Zone:F4 NW APARTMENT,hourly; !- [J]
Output:Meter,Fans:Electricity:Zone:F4 S1 APARTMENT,hourly; !- [J]
Output:Meter:Cumulative,Fans:Electricity:Zone:F4 S1 APARTMENT,hourly; !- [J]
Output:Meter,Fans:Electricity:Zone:F4 S2 APARTMENT,hourly; !- [J]
Output:Meter:Cumulative,Fans:Electricity:Zone:F4 S2 APARTMENT,hourly; !- [J]
Output:Meter,Fans:Electricity:Zone:F4 SE APARTMENT,hourly; !- [J]
Output:Meter:Cumulative,Fans:Electricity:Zone:F4 SE APARTMENT,hourly; !- [J]
Output:Meter,Fans:Electricity:Zone:F4 SW APARTMENT,hourly; !- [J]
Output:Meter:Cumulative,Fans:Electricity:Zone:F4 SW APARTMENT,hourly; !- [J]
Output:Meter,Fans:Electricity:Zone:F6 N1 APARTMENT,hourly; !- [J]
Output:Meter:Cumulative,Fans:Electricity:Zone:F6 N1 APARTMENT,hourly; !- [J]
Output:Meter,Fans:Electricity:Zone:F6 N2 APARTMENT,hourly; !- [J]
Output:Meter:Cumulative,Fans:Electricity:Zone:F6 N2 APARTMENT,hourly; !- [J]
Output:Meter,Fans:Electricity:Zone:F6 NE APARTMENT,hourly; !- [J]
Output:Meter:Cumulative,Fans:Electricity:Zone:F6 NE APARTMENT,hourly; !- [J]
Output:Meter,Fans:Electricity:Zone:F6 NW APARTMENT,hourly; !- [J]
Output:Meter:Cumulative,Fans:Electricity:Zone:F6 NW APARTMENT,hourly; !- [J]
Output:Meter,Fans:Electricity:Zone:F6 S1 APARTMENT,hourly; !- [J]
Output:Meter:Cumulative,Fans:Electricity:Zone:F6 S1 APARTMENT,hourly; !- [J]
Output:Meter,Fans:Electricity:Zone:F6 S2 APARTMENT,hourly; !- [J]
Output:Meter:Cumulative,Fans:Electricity:Zone:F6 S2 APARTMENT,hourly; !- [J]
Output:Meter,Fans:Electricity:Zone:F6 SE APARTMENT,hourly; !- [J]
Output:Meter:Cumulative,Fans:Electricity:Zone:F6 SE APARTMENT,hourly; !- [J]
Output:Meter,Fans:Electricity:Zone:F6 SW APARTMENT,hourly; !- [J]
Output:Meter:Cumulative,Fans:Electricity:Zone:F6 SW APARTMENT,hourly; !- [J]
Output:Meter,Fans:Electricity:Zone:F7 N1 APARTMENT,hourly; !- [J]
Output:Meter:Cumulative,Fans:Electricity:Zone:F7 N1 APARTMENT,hourly; !- [J]
Output:Meter,Fans:Electricity:Zone:F7 N2 APARTMENT,hourly; !- [J]
Output:Meter:Cumulative,Fans:Electricity:Zone:F7 N2 APARTMENT,hourly; !- [J]
Output:Meter,Fans:Electricity:Zone:F7 NE APARTMENT,hourly; !- [J]
Output:Meter:Cumulative,Fans:Electricity:Zone:F7 NE APARTMENT,hourly; !- [J]
Output:Meter,Fans:Electricity:Zone:F7 NW APARTMENT,hourly; !- [J]
Output:Meter:Cumulative,Fans:Electricity:Zone:F7 NW APARTMENT,hourly; !- [J]
Output:Meter,Fans:Electricity:Zone:F7 S1 APARTMENT,hourly; !- [J]
Output:Meter:Cumulative,Fans:Electricity:Zone:F7 S1 APARTMENT,hourly; !- [J]
Output:Meter,Fans:Electricity:Zone:F7 S2 APARTMENT,hourly; !- [J]
Output:Meter:Cumulative,Fans:Electricity:Zone:F7 S2 APARTMENT,hourly; !- [J]
Output:Meter,Fans:Electricity:Zone:F7 SE APARTMENT,hourly; !- [J]
Output:Meter:Cumulative,Fans:Electricity:Zone:F7 SE APARTMENT,hourly; !- [J]
Output:Meter,Fans:Electricity:Zone:F7 SW APARTMENT,hourly; !- [J]
Output:Meter:Cumulative,Fans:Electricity:Zone:F7 SW APARTMENT,hourly; !- [J]
Output:Meter,Fans:Electricity:Zone:F8 N1 APARTMENT,hourly; !- [J]
Output:Meter:Cumulative,Fans:Electricity:Zone:F8 N1 APARTMENT,hourly; !- [J]
Output:Meter,Fans:Electricity:Zone:F8 N2 APARTMENT,hourly; !- [J]
Output:Meter:Cumulative,Fans:Electricity:Zone:F8 N2 APARTMENT,hourly; !- [J]
Output:Meter,Fans:Electricity:Zone:F8 NE APARTMENT,hourly; !- [J]
Output:Meter:Cumulative,Fans:Electricity:Zone:F8 NE APARTMENT,hourly; !- [J]
Output:Meter,Fans:Electricity:Zone:F8 NW APARTMENT,hourly; !- [J]
Output:Meter:Cumulative,Fans:Electricity:Zone:F8 NW APARTMENT,hourly; !- [J]
Output:Meter,Fans:Electricity:Zone:F8 S1 APARTMENT,hourly; !- [J]
Output:Meter:Cumulative,Fans:Electricity:Zone:F8 S1 APARTMENT,hourly; !- [J]
Output:Meter,Fans:Electricity:Zone:F8 S2 APARTMENT,hourly; !- [J]
Output:Meter:Cumulative,Fans:Electricity:Zone:F8 S2 APARTMENT,hourly; !- [J]
Output:Meter,Fans:Electricity:Zone:F8 SE APARTMENT,hourly; !- [J]
Output:Meter:Cumulative,Fans:Electricity:Zone:F8 SE APARTMENT,hourly; !- [J]
Output:Meter,Fans:Electricity:Zone:F8 SW APARTMENT,hourly; !- [J]
Output:Meter:Cumulative,Fans:Electricity:Zone:F8 SW APARTMENT,hourly; !- [J]
Output:Meter,Fans:Electricity:Zone:F9 N1 APARTMENT,hourly; !- [J]
Output:Meter:Cumulative,Fans:Electricity:Zone:F9 N1 APARTMENT,hourly; !- [J]
Output:Meter,Fans:Electricity:Zone:F9 N2 APARTMENT,hourly; !- [J]
Output:Meter:Cumulative,Fans:Electricity:Zone:F9 N2 APARTMENT,hourly; !- [J]
Output:Meter,Fans:Electricity:Zone:F9 NE APARTMENT,hourly; !- [J]
Output:Meter:Cumulative,Fans:Electricity:Zone:F9 NE APARTMENT,hourly; !- [J]
Output:Meter,Fans:Electricity:Zone:F9 NW APARTMENT,hourly; !- [J]
Output:Meter:Cumulative,Fans:Electricity:Zone:F9 NW APARTMENT,hourly; !- [J]
Output:Meter,Fans:Electricity:Zone:F9 S1 APARTMENT,hourly; !- [J]
Output:Meter:Cumulative,Fans:Electricity:Zone:F9 S1 APARTMENT,hourly; !- [J]
Output:Meter,Fans:Electricity:Zone:F9 S2 APARTMENT,hourly; !- [J]
Output:Meter:Cumulative,Fans:Electricity:Zone:F9 S2 APARTMENT,hourly; !- [J]
Output:Meter,Fans:Electricity:Zone:F9 SE APARTMENT,hourly; !- [J]
Output:Meter:Cumulative,Fans:Electricity:Zone:F9 SE APARTMENT,hourly; !- [J]
Output:Meter,Fans:Electricity:Zone:F9 SW APARTMENT,hourly; !- [J]
Output:Meter:Cumulative,Fans:Electricity:Zone:F9 SW APARTMENT,hourly; !- [J]
Output:Meter,Fans:Electricity:Zone:G N1 APARTMENT,hourly; !- [J]
Output:Meter:Cumulative,Fans:Electricity:Zone:G N1 APARTMENT,hourly; !- [J]
Output:Meter,Fans:Electricity:Zone:G N2 APARTMENT,hourly; !- [J]
Output:Meter:Cumulative,Fans:Electricity:Zone:G N2 APARTMENT,hourly; !- [J]
Output:Meter,Fans:Electricity:Zone:G NE APARTMENT,hourly; !- [J]
Output:Meter:Cumulative,Fans:Electricity:Zone:G NE APARTMENT,hourly; !- [J]
Output:Meter,Fans:Electricity:Zone:G NW APARTMENT,hourly; !- [J]
Output:Meter:Cumulative,Fans:Electricity:Zone:G NW APARTMENT,hourly; !- [J]
Output:Meter,Fans:Electricity:Zone:G S1 APARTMENT,hourly; !- [J]
Output:Meter:Cumulative,Fans:Electricity:Zone:G S1 APARTMENT,hourly; !- [J]
Output:Meter,Fans:Electricity:Zone:G S2 APARTMENT,hourly; !- [J]
Output:Meter:Cumulative,Fans:Electricity:Zone:G S2 APARTMENT,hourly; !- [J]
Output:Meter,Fans:Electricity:Zone:G SW APARTMENT,hourly; !- [J]
Output:Meter:Cumulative,Fans:Electricity:Zone:G SW APARTMENT,hourly; !- [J]
Output:Meter,Fans:Electricity:Zone:M N1 APARTMENT,hourly; !- [J]
Output:Meter:Cumulative,Fans:Electricity:Zone:M N1 APARTMENT,hourly; !- [J]
Output:Meter,Fans:Electricity:Zone:M N2 APARTMENT,hourly; !- [J]
Output:Meter:Cumulative,Fans:Electricity:Zone:M N2 APARTMENT,hourly; !- [J]
Output:Meter,Fans:Electricity:Zone:M NE APARTMENT,hourly; !- [J]
Output:Meter:Cumulative,Fans:Electricity:Zone:M NE APARTMENT,hourly; !- [J]
Output:Meter,Fans:Electricity:Zone:M NW APARTMENT,hourly; !- [J]
Output:Meter:Cumulative,Fans:Electricity:Zone:M NW APARTMENT,hourly; !- [J]
Output:Meter,Fans:Electricity:Zone:M S1 APARTMENT,hourly; !- [J]
Output:Meter:Cumulative,Fans:Electricity:Zone:M S1 APARTMENT,hourly; !- [J]
Output:Meter,Fans:Electricity:Zone:M S2 APARTMENT,hourly; !- [J]
Output:Meter:Cumulative,Fans:Electricity:Zone:M S2 APARTMENT,hourly; !- [J]
Output:Meter,Fans:Electricity:Zone:M SE APARTMENT,hourly; !- [J]
Output:Meter:Cumulative,Fans:Electricity:Zone:M SE APARTMENT,hourly; !- [J]
Output:Meter,Fans:Electricity:Zone:M SW APARTMENT,hourly; !- [J]
Output:Meter:Cumulative,Fans:Electricity:Zone:M SW APARTMENT,hourly; !- [J]
Output:Meter,Fans:Electricity:Zone:T N1 APARTMENT,hourly; !- [J]
Output:Meter:Cumulative,Fans:Electricity:Zone:T N1 APARTMENT,hourly; !- [J]
Output:Meter,Fans:Electricity:Zone:T N2 APARTMENT,hourly; !- [J]
Output:Meter:Cumulative,Fans:Electricity:Zone:T N2 APARTMENT,hourly; !- [J]
Output:Meter,Fans:Electricity:Zone:T NE APARTMENT,hourly; !- [J]
Output:Meter:Cumulative,Fans:Electricity:Zone:T NE APARTMENT,hourly; !- [J]
Output:Meter,Fans:Electricity:Zone:T NW APARTMENT,hourly; !- [J]
Output:Meter:Cumulative,Fans:Electricity:Zone:T NW APARTMENT,hourly; !- [J]
Output:Meter,Fans:Electricity:Zone:T S1 APARTMENT,hourly; !- [J]
Output:Meter:Cumulative,Fans:Electricity:Zone:T S1 APARTMENT,hourly; !- [J]
Output:Meter,Fans:Electricity:Zone:T S2 APARTMENT,hourly; !- [J]
Output:Meter:Cumulative,Fans:Electricity:Zone:T S2 APARTMENT,hourly; !- [J]
Output:Meter,Fans:Electricity:Zone:T SE APARTMENT,hourly; !- [J]
Output:Meter:Cumulative,Fans:Electricity:Zone:T SE APARTMENT,hourly; !- [J]
Output:Meter,Fans:Electricity:Zone:T SW APARTMENT,hourly; !- [J]
Output:Meter:Cumulative,Fans:Electricity:Zone:T SW APARTMENT,hourly; !- [J]
Output:Meter,EnergyTransfer:Facility,hourly; !- [J]
Output:Meter:Cumulative,EnergyTransfer:Facility,hourly; !- [J]
Output:Meter,EnergyTransfer:Building,hourly; !- [J]
Output:Meter:Cumulative,EnergyTransfer:Building,hourly; !- [J]
Output:Meter,EnergyTransfer:Zone:F2 CORRIDOR,hourly; !- [J]
Output:Meter:Cumulative,EnergyTransfer:Zone:F2 CORRIDOR,hourly; !- [J]
Output:Meter,Heating:EnergyTransfer,hourly; !- [J]
Output:Meter:Cumulative,Heating:EnergyTransfer,hourly; !- [J]
Output:Meter,Heating:EnergyTransfer:Zone:F2 CORRIDOR,hourly; !- [J]
Output:Meter:Cumulative,Heating:EnergyTransfer:Zone:F2 CORRIDOR,hourly; !- [J]
Output:Meter,Cooling:EnergyTransfer,hourly; !- [J]
Output:Meter:Cumulative,Cooling:EnergyTransfer,hourly; !- [J]
Output:Meter,Cooling:EnergyTransfer:Zone:F2 CORRIDOR,hourly; !- [J]
Output:Meter:Cumulative,Cooling:EnergyTransfer:Zone:F2 CORRIDOR,hourly; !- [J]
Output:Meter,EnergyTransfer:Zone:F2 N1 APARTMENT,hourly; !- [J]
Output:Meter:Cumulative,EnergyTransfer:Zone:F2 N1 APARTMENT,hourly; !- [J]
Output:Meter,Heating:EnergyTransfer:Zone:F2 N1 APARTMENT,hourly; !- [J]
Output:Meter:Cumulative,Heating:EnergyTransfer:Zone:F2 N1 APARTMENT,hourly; !- [J]
Output:Meter,Cooling:EnergyTransfer:Zone:F2 N1 APARTMENT,hourly; !- [J]
Output:Meter:Cumulative,Cooling:EnergyTransfer:Zone:F2 N1 APARTMENT,hourly; !- [J]
Output:Meter,EnergyTransfer:Zone:F2 N2 APARTMENT,hourly; !- [J]
Output:Meter:Cumulative,EnergyTransfer:Zone:F2 N2 APARTMENT,hourly; !- [J]
Output:Meter,Heating:EnergyTransfer:Zone:F2 N2 APARTMENT,hourly; !- [J]
Output:Meter:Cumulative,Heating:EnergyTransfer:Zone:F2 N2 APARTMENT,hourly; !- [J]
Output:Meter,Cooling:EnergyTransfer:Zone:F2 N2 APARTMENT,hourly; !- [J]
Output:Meter:Cumulative,Cooling:EnergyTransfer:Zone:F2 N2 APARTMENT,hourly; !- [J]
Output:Meter,EnergyTransfer:Zone:F2 NE APARTMENT,hourly; !- [J]
Output:Meter:Cumulative,EnergyTransfer:Zone:F2 NE APARTMENT,hourly; !- [J]
Output:Meter,Heating:EnergyTransfer:Zone:F2 NE APARTMENT,hourly; !- [J]
Output:Meter:Cumulative,Heating:EnergyTransfer:Zone:F2 NE APARTMENT,hourly; !- [J]
Output:Meter,Cooling:EnergyTransfer:Zone:F2 NE APARTMENT,hourly; !- [J]
Output:Meter:Cumulative,Cooling:EnergyTransfer:Zone:F2 NE APARTMENT,hourly; !- [J]
Output:Meter,EnergyTransfer:Zone:F2 NW APARTMENT,hourly; !- [J]
Output:Meter:Cumulative,EnergyTransfer:Zone:F2 NW APARTMENT,hourly; !- [J]
Output:Meter,Heating:EnergyTransfer:Zone:F2 NW APARTMENT,hourly; !- [J]
Output:Meter:Cumulative,Heating:EnergyTransfer:Zone:F2 NW APARTMENT,hourly; !- [J]
Output:Meter,Cooling:EnergyTransfer:Zone:F2 NW APARTMENT,hourly; !- [J]
Output:Meter:Cumulative,Cooling:EnergyTransfer:Zone:F2 NW APARTMENT,hourly; !- [J]
Output:Meter,EnergyTransfer:Zone:F2 S1 APARTMENT,hourly; !- [J]
Output:Meter:Cumulative,EnergyTransfer:Zone:F2 S1 APARTMENT,hourly; !- [J]
Output:Meter,Heating:EnergyTransfer:Zone:F2 S1 APARTMENT,hourly; !- [J]
Output:Meter:Cumulative,Heating:EnergyTransfer:Zone:F2 S1 APARTMENT,hourly; !- [J]
Output:Meter,Cooling:EnergyTransfer:Zone:F2 S1 APARTMENT,hourly; !- [J]
Output:Meter:Cumulative,Cooling:EnergyTransfer:Zone:F2 S1 APARTMENT,hourly; !- [J]
Output:Meter,EnergyTransfer:Zone:F2 S2 APARTMENT,hourly; !- [J]
Output:Meter:Cumulative,EnergyTransfer:Zone:F2 S2 APARTMENT,hourly; !- [J]
Output:Meter,Heating:EnergyTransfer:Zone:F2 S2 APARTMENT,hourly; !- [J]
Output:Meter:Cumulative,Heating:EnergyTransfer:Zone:F2 S2 APARTMENT,hourly; !- [J]
Output:Meter,Cooling:EnergyTransfer:Zone:F2 S2 APARTMENT,hourly; !- [J]
Output:Meter:Cumulative,Cooling:EnergyTransfer:Zone:F2 S2 APARTMENT,hourly; !- [J]
Output:Meter,EnergyTransfer:Zone:F2 SE APARTMENT,hourly; !- [J]
Output:Meter:Cumulative,EnergyTransfer:Zone:F2 SE APARTMENT,hourly; !- [J]
Output:Meter,Heating:EnergyTransfer:Zone:F2 SE APARTMENT,hourly; !- [J]
Output:Meter:Cumulative,Heating:EnergyTransfer:Zone:F2 SE APARTMENT,hourly; !- [J]
Output:Meter,Cooling:EnergyTransfer:Zone:F2 SE APARTMENT,hourly; !- [J]
Output:Meter:Cumulative,Cooling:EnergyTransfer:Zone:F2 SE APARTMENT,hourly; !- [J]
Output:Meter,EnergyTransfer:Zone:F2 SW APARTMENT,hourly; !- [J]
Output:Meter:Cumulative,EnergyTransfer:Zone:F2 SW APARTMENT,hourly; !- [J]
Output:Meter,Heating:EnergyTransfer:Zone:F2 SW APARTMENT,hourly; !- [J]
Output:Meter:Cumulative,Heating:EnergyTransfer:Zone:F2 SW APARTMENT,hourly; !- [J]
Output:Meter,Cooling:EnergyTransfer:Zone:F2 SW APARTMENT,hourly; !- [J]
Output:Meter:Cumulative,Cooling:EnergyTransfer:Zone:F2 SW APARTMENT,hourly; !- [J]
Output:Meter,EnergyTransfer:Zone:F3 CORRIDOR,hourly; !- [J]
Output:Meter:Cumulative,EnergyTransfer:Zone:F3 CORRIDOR,hourly; !- [J]
Output:Meter,Heating:EnergyTransfer:Zone:F3 CORRIDOR,hourly; !- [J]
Output:Meter:Cumulative,Heating:EnergyTransfer:Zone:F3 CORRIDOR,hourly; !- [J]
Output:Meter,Cooling:EnergyTransfer:Zone:F3 CORRIDOR,hourly; !- [J]
Output:Meter:Cumulative,Cooling:EnergyTransfer:Zone:F3 CORRIDOR,hourly; !- [J]
Output:Meter,EnergyTransfer:Zone:F3 N1 APARTMENT,hourly; !- [J]
Output:Meter:Cumulative,EnergyTransfer:Zone:F3 N1 APARTMENT,hourly; !- [J]
Output:Meter,Heating:EnergyTransfer:Zone:F3 N1 APARTMENT,hourly; !- [J]
Output:Meter:Cumulative,Heating:EnergyTransfer:Zone:F3 N1 APARTMENT,hourly; !- [J]
Output:Meter,Cooling:EnergyTransfer:Zone:F3 N1 APARTMENT,hourly; !- [J]
Output:Meter:Cumulative,Cooling:EnergyTransfer:Zone:F3 N1 APARTMENT,hourly; !- [J]
Output:Meter,EnergyTransfer:Zone:F3 N2 APARTMENT,hourly; !- [J]
Output:Meter:Cumulative,EnergyTransfer:Zone:F3 N2 APARTMENT,hourly; !- [J]
Output:Meter,Heating:EnergyTransfer:Zone:F3 N2 APARTMENT,hourly; !- [J]
Output:Meter:Cumulative,Heating:EnergyTransfer:Zone:F3 N2 APARTMENT,hourly; !- [J]
Output:Meter,Cooling:EnergyTransfer:Zone:F3 N2 APARTMENT,hourly; !- [J]
Output:Meter:Cumulative,Cooling:EnergyTransfer:Zone:F3 N2 APARTMENT,hourly; !- [J]
Output:Meter,EnergyTransfer:Zone:F3 NE APARTMENT,hourly; !- [J]
Output:Meter:Cumulative,EnergyTransfer:Zone:F3 NE APARTMENT,hourly; !- [J]
Output:Meter,Heating:EnergyTransfer:Zone:F3 NE APARTMENT,hourly; !- [J]
Output:Meter:Cumulative,Heating:EnergyTransfer:Zone:F3 NE APARTMENT,hourly; !- [J]
Output:Meter,Cooling:EnergyTransfer:Zone:F3 NE APARTMENT,hourly; !- [J]
Output:Meter:Cumulative,Cooling:EnergyTransfer:Zone:F3 NE APARTMENT,hourly; !- [J]
Output:Meter,EnergyTransfer:Zone:F3 NW APARTMENT,hourly; !- [J]
Output:Meter:Cumulative,EnergyTransfer:Zone:F3 NW APARTMENT,hourly; !- [J]
Output:Meter,Heating:EnergyTransfer:Zone:F3 NW APARTMENT,hourly; !- [J]
Output:Meter:Cumulative,Heating:EnergyTransfer:Zone:F3 NW APARTMENT,hourly; !- [J]
Output:Meter,Cooling:EnergyTransfer:Zone:F3 NW APARTMENT,hourly; !- [J]
Output:Meter:Cumulative,Cooling:EnergyTransfer:Zone:F3 NW APARTMENT,hourly; !- [J]
Output:Meter,EnergyTransfer:Zone:F3 S1 APARTMENT,hourly; !- [J]
Output:Meter:Cumulative,EnergyTransfer:Zone:F3 S1 APARTMENT,hourly; !- [J]
Output:Meter,Heating:EnergyTransfer:Zone:F3 S1 APARTMENT,hourly; !- [J]
Output:Meter:Cumulative,Heating:EnergyTransfer:Zone:F3 S1 APARTMENT,hourly; !- [J]
Output:Meter,Cooling:EnergyTransfer:Zone:F3 S1 APARTMENT,hourly; !- [J]
Output:Meter:Cumulative,Cooling:EnergyTransfer:Zone:F3 S1 APARTMENT,hourly; !- [J]
Output:Meter,EnergyTransfer:Zone:F3 S2 APARTMENT,hourly; !- [J]
Output:Meter:Cumulative,EnergyTransfer:Zone:F3 S2 APARTMENT,hourly; !- [J]
Output:Meter,Heating:EnergyTransfer:Zone:F3 S2 APARTMENT,hourly; !- [J]
Output:Meter:Cumulative,Heating:EnergyTransfer:Zone:F3 S2 APARTMENT,hourly; !- [J]
Output:Meter,Cooling:EnergyTransfer:Zone:F3 S2 APARTMENT,hourly; !- [J]
Output:Meter:Cumulative,Cooling:EnergyTransfer:Zone:F3 S2 APARTMENT,hourly; !- [J]
Output:Meter,EnergyTransfer:Zone:F3 SE APARTMENT,hourly; !- [J]
Output:Meter:Cumulative,EnergyTransfer:Zone:F3 SE APARTMENT,hourly; !- [J]
Output:Meter,Heating:EnergyTransfer:Zone:F3 SE APARTMENT,hourly; !- [J]
Output:Meter:Cumulative,Heating:EnergyTransfer:Zone:F3 SE APARTMENT,hourly; !- [J]
Output:Meter,Cooling:EnergyTransfer:Zone:F3 SE APARTMENT,hourly; !- [J]
Output:Meter:Cumulative,Cooling:EnergyTransfer:Zone:F3 SE APARTMENT,hourly; !- [J]
Output:Meter,EnergyTransfer:Zone:F3 SW APARTMENT,hourly; !- [J]
Output:Meter:Cumulative,EnergyTransfer:Zone:F3 SW APARTMENT,hourly; !- [J]
Output:Meter,Heating:EnergyTransfer:Zone:F3 SW APARTMENT,hourly; !- [J]
Output:Meter:Cumulative,Heating:EnergyTransfer:Zone:F3 SW APARTMENT,hourly; !- [J]
Output:Meter,Cooling:EnergyTransfer:Zone:F3 SW APARTMENT,hourly; !- [J]
Output:Meter:Cumulative,Cooling:EnergyTransfer:Zone:F3 SW APARTMENT,hourly; !- [J]
Output:Meter,EnergyTransfer:Zone:F4 CORRIDOR,hourly; !- [J]
Output:Meter:Cumulative,EnergyTransfer:Zone:F4 CORRIDOR,hourly; !- [J]
Output:Meter,Heating:EnergyTransfer:Zone:F4 CORRIDOR,hourly; !- [J]
Output:Meter:Cumulative,Heating:EnergyTransfer:Zone:F4 CORRIDOR,hourly; !- [J]
Output:Meter,Cooling:EnergyTransfer:Zone:F4 CORRIDOR,hourly; !- [J]
Output:Meter:Cumulative,Cooling:EnergyTransfer:Zone:F4 CORRIDOR,hourly; !- [J]
Output:Meter,EnergyTransfer:Zone:F4 N1 APARTMENT,hourly; !- [J]
Output:Meter:Cumulative,EnergyTransfer:Zone:F4 N1 APARTMENT,hourly; !- [J]
Output:Meter,Heating:EnergyTransfer:Zone:F4 N1 APARTMENT,hourly; !- [J]
Output:Meter:Cumulative,Heating:EnergyTransfer:Zone:F4 N1 APARTMENT,hourly; !- [J]
Output:Meter,Cooling:EnergyTransfer:Zone:F4 N1 APARTMENT,hourly; !- [J]
Output:Meter:Cumulative,Cooling:EnergyTransfer:Zone:F4 N1 APARTMENT,hourly; !- [J]
Output:Meter,EnergyTransfer:Zone:F4 N2 APARTMENT,hourly; !- [J]
Output:Meter:Cumulative,EnergyTransfer:Zone:F4 N2 APARTMENT,hourly; !- [J]
Output:Meter,Heating:EnergyTransfer:Zone:F4 N2 APARTMENT,hourly; !- [J]
Output:Meter:Cumulative,Heating:EnergyTransfer:Zone:F4 N2 APARTMENT,hourly; !- [J]
Output:Meter,Cooling:EnergyTransfer:Zone:F4 N2 APARTMENT,hourly; !- [J]
Output:Meter:Cumulative,Cooling:EnergyTransfer:Zone:F4 N2 APARTMENT,hourly; !- [J]
Output:Meter,EnergyTransfer:Zone:F4 NE APARTMENT,hourly; !- [J]
Output:Meter:Cumulative,EnergyTransfer:Zone:F4 NE APARTMENT,hourly; !- [J]
Output:Meter,Heating:EnergyTransfer:Zone:F4 NE APARTMENT,hourly; !- [J]
Output:Meter:Cumulative,Heating:EnergyTransfer:Zone:F4 NE APARTMENT,hourly; !- [J]
Output:Meter,Cooling:EnergyTransfer:Zone:F4 NE APARTMENT,hourly; !- [J]
Output:Meter:Cumulative,Cooling:EnergyTransfer:Zone:F4 NE APARTMENT,hourly; !- [J]
Output:Meter,EnergyTransfer:Zone:F4 NW APARTMENT,hourly; !- [J]
Output:Meter:Cumulative,EnergyTransfer:Zone:F4 NW APARTMENT,hourly; !- [J]
Output:Meter,Heating:EnergyTransfer:Zone:F4 NW APARTMENT,hourly; !- [J]
Output:Meter:Cumulative,Heating:EnergyTransfer:Zone:F4 NW APARTMENT,hourly; !- [J]
Output:Meter,Cooling:EnergyTransfer:Zone:F4 NW APARTMENT,hourly; !- [J]
Output:Meter:Cumulative,Cooling:EnergyTransfer:Zone:F4 NW APARTMENT,hourly; !- [J]
Output:Meter,EnergyTransfer:Zone:F4 S1 APARTMENT,hourly; !- [J]
Output:Meter:Cumulative,EnergyTransfer:Zone:F4 S1 APARTMENT,hourly; !- [J]
Output:Meter,Heating:EnergyTransfer:Zone:F4 S1 APARTMENT,hourly; !- [J]
Output:Meter:Cumulative,Heating:EnergyTransfer:Zone:F4 S1 APARTMENT,hourly; !- [J]
Output:Meter,Cooling:EnergyTransfer:Zone:F4 S1 APARTMENT,hourly; !- [J]
Output:Meter:Cumulative,Cooling:EnergyTransfer:Zone:F4 S1 APARTMENT,hourly; !- [J]
Output:Meter,EnergyTransfer:Zone:F4 S2 APARTMENT,hourly; !- [J]
Output:Meter:Cumulative,EnergyTransfer:Zone:F4 S2 APARTMENT,hourly; !- [J]
Output:Meter,Heating:EnergyTransfer:Zone:F4 S2 APARTMENT,hourly; !- [J]
Output:Meter:Cumulative,Heating:EnergyTransfer:Zone:F4 S2 APARTMENT,hourly; !- [J]
Output:Meter,Cooling:EnergyTransfer:Zone:F4 S2 APARTMENT,hourly; !- [J]
Output:Meter:Cumulative,Cooling:EnergyTransfer:Zone:F4 S2 APARTMENT,hourly; !- [J]
Output:Meter,EnergyTransfer:Zone:F4 SE APARTMENT,hourly; !- [J]
Output:Meter:Cumulative,EnergyTransfer:Zone:F4 SE APARTMENT,hourly; !- [J]
Output:Meter,Heating:EnergyTransfer:Zone:F4 SE APARTMENT,hourly; !- [J]
Output:Meter:Cumulative,Heating:EnergyTransfer:Zone:F4 SE APARTMENT,hourly; !- [J]
Output:Meter,Cooling:EnergyTransfer:Zone:F4 SE APARTMENT,hourly; !- [J]
Output:Meter:Cumulative,Cooling:EnergyTransfer:Zone:F4 SE APARTMENT,hourly; !- [J]
Output:Meter,EnergyTransfer:Zone:F4 SW APARTMENT,hourly; !- [J]
Output:Meter:Cumulative,EnergyTransfer:Zone:F4 SW APARTMENT,hourly; !- [J]
Output:Meter,Heating:EnergyTransfer:Zone:F4 SW APARTMENT,hourly; !- [J]
Output:Meter:Cumulative,Heating:EnergyTransfer:Zone:F4 SW APARTMENT,hourly; !- [J]
Output:Meter,Cooling:EnergyTransfer:Zone:F4 SW APARTMENT,hourly; !- [J]
Output:Meter:Cumulative,Cooling:EnergyTransfer:Zone:F4 SW APARTMENT,hourly; !- [J]
Output:Meter,EnergyTransfer:Zone:F6 CORRIDOR,hourly; !- [J]
Output:Meter:Cumulative,EnergyTransfer:Zone:F6 CORRIDOR,hourly; !- [J]
Output:Meter,Heating:EnergyTransfer:Zone:F6 CORRIDOR,hourly; !- [J]
Output:Meter:Cumulative,Heating:EnergyTransfer:Zone:F6 CORRIDOR,hourly; !- [J]
Output:Meter,Cooling:EnergyTransfer:Zone:F6 CORRIDOR,hourly; !- [J]
Output:Meter:Cumulative,Cooling:EnergyTransfer:Zone:F6 CORRIDOR,hourly; !- [J]
Output:Meter,EnergyTransfer:Zone:F6 N1 APARTMENT,hourly; !- [J]
Output:Meter:Cumulative,EnergyTransfer:Zone:F6 N1 APARTMENT,hourly; !- [J]
Output:Meter,Heating:EnergyTransfer:Zone:F6 N1 APARTMENT,hourly; !- [J]
Output:Meter:Cumulative,Heating:EnergyTransfer:Zone:F6 N1 APARTMENT,hourly; !- [J]
Output:Meter,Cooling:EnergyTransfer:Zone:F6 N1 APARTMENT,hourly; !- [J]
Output:Meter:Cumulative,Cooling:EnergyTransfer:Zone:F6 N1 APARTMENT,hourly; !- [J]
Output:Meter,EnergyTransfer:Zone:F6 N2 APARTMENT,hourly; !- [J]
Output:Meter:Cumulative,EnergyTransfer:Zone:F6 N2 APARTMENT,hourly; !- [J]
Output:Meter,Heating:EnergyTransfer:Zone:F6 N2 APARTMENT,hourly; !- [J]
Output:Meter:Cumulative,Heating:EnergyTransfer:Zone:F6 N2 APARTMENT,hourly; !- [J]
Output:Meter,Cooling:EnergyTransfer:Zone:F6 N2 APARTMENT,hourly; !- [J]
Output:Meter:Cumulative,Cooling:EnergyTransfer:Zone:F6 N2 APARTMENT,hourly; !- [J]
Output:Meter,EnergyTransfer:Zone:F6 NE APARTMENT,hourly; !- [J]
Output:Meter:Cumulative,EnergyTransfer:Zone:F6 NE APARTMENT,hourly; !- [J]
Output:Meter,Heating:EnergyTransfer:Zone:F6 NE APARTMENT,hourly; !- [J]
Output:Meter:Cumulative,Heating:EnergyTransfer:Zone:F6 NE APARTMENT,hourly; !- [J]
Output:Meter,Cooling:EnergyTransfer:Zone:F6 NE APARTMENT,hourly; !- [J]
Output:Meter:Cumulative,Cooling:EnergyTransfer:Zone:F6 NE APARTMENT,hourly; !- [J]
Output:Meter,EnergyTransfer:Zone:F6 NW APARTMENT,hourly; !- [J]
Output:Meter:Cumulative,EnergyTransfer:Zone:F6 NW APARTMENT,hourly; !- [J]
Output:Meter,Heating:EnergyTransfer:Zone:F6 NW APARTMENT,hourly; !- [J]
Output:Meter:Cumulative,Heating:EnergyTransfer:Zone:F6 NW APARTMENT,hourly; !- [J]
Output:Meter,Cooling:EnergyTransfer:Zone:F6 NW APARTMENT,hourly; !- [J]
Output:Meter:Cumulative,Cooling:EnergyTransfer:Zone:F6 NW APARTMENT,hourly; !- [J]
Output:Meter,EnergyTransfer:Zone:F6 S1 APARTMENT,hourly; !- [J]
Output:Meter:Cumulative,EnergyTransfer:Zone:F6 S1 APARTMENT,hourly; !- [J]
Output:Meter,Heating:EnergyTransfer:Zone:F6 S1 APARTMENT,hourly; !- [J]
Output:Meter:Cumulative,Heating:EnergyTransfer:Zone:F6 S1 APARTMENT,hourly; !- [J]
Output:Meter,Cooling:EnergyTransfer:Zone:F6 S1 APARTMENT,hourly; !- [J]
Output:Meter:Cumulative,Cooling:EnergyTransfer:Zone:F6 S1 APARTMENT,hourly; !- [J]
Output:Meter,EnergyTransfer:Zone:F6 S2 APARTMENT,hourly; !- [J]
Output:Meter:Cumulative,EnergyTransfer:Zone:F6 S2 APARTMENT,hourly; !- [J]
Output:Meter,Heating:EnergyTransfer:Zone:F6 S2 APARTMENT,hourly; !- [J]
Output:Meter:Cumulative,Heating:EnergyTransfer:Zone:F6 S2 APARTMENT,hourly; !- [J]
Output:Meter,Cooling:EnergyTransfer:Zone:F6 S2 APARTMENT,hourly; !- [J]
Output:Meter:Cumulative,Cooling:EnergyTransfer:Zone:F6 S2 APARTMENT,hourly; !- [J]
Output:Meter,EnergyTransfer:Zone:F6 SE APARTMENT,hourly; !- [J]
Output:Meter:Cumulative,EnergyTransfer:Zone:F6 SE APARTMENT,hourly; !- [J]
Output:Meter,Heating:EnergyTransfer:Zone:F6 SE APARTMENT,hourly; !- [J]
Output:Meter:Cumulative,Heating:EnergyTransfer:Zone:F6 SE APARTMENT,hourly; !- [J]
Output:Meter,Cooling:EnergyTransfer:Zone:F6 SE APARTMENT,hourly; !- [J]
Output:Meter:Cumulative,Cooling:EnergyTransfer:Zone:F6 SE APARTMENT,hourly; !- [J]
Output:Meter,EnergyTransfer:Zone:F6 SW APARTMENT,hourly; !- [J]
Output:Meter:Cumulative,EnergyTransfer:Zone:F6 SW APARTMENT,hourly; !- [J]
Output:Meter,Heating:EnergyTransfer:Zone:F6 SW APARTMENT,hourly; !- [J]
Output:Meter:Cumulative,Heating:EnergyTransfer:Zone:F6 SW APARTMENT,hourly; !- [J]
Output:Meter,Cooling:EnergyTransfer:Zone:F6 SW APARTMENT,hourly; !- [J]
Output:Meter:Cumulative,Cooling:EnergyTransfer:Zone:F6 SW APARTMENT,hourly; !- [J]
Output:Meter,EnergyTransfer:Zone:F7 CORRIDOR,hourly; !- [J]
Output:Meter:Cumulative,EnergyTransfer:Zone:F7 CORRIDOR,hourly; !- [J]
Output:Meter,Heating:EnergyTransfer:Zone:F7 CORRIDOR,hourly; !- [J]
Output:Meter:Cumulative,Heating:EnergyTransfer:Zone:F7 CORRIDOR,hourly; !- [J]
Output:Meter,Cooling:EnergyTransfer:Zone:F7 CORRIDOR,hourly; !- [J]
Output:Meter:Cumulative,Cooling:EnergyTransfer:Zone:F7 CORRIDOR,hourly; !- [J]
Output:Meter,EnergyTransfer:Zone:F7 N1 APARTMENT,hourly; !- [J]
Output:Meter:Cumulative,EnergyTransfer:Zone:F7 N1 APARTMENT,hourly; !- [J]
Output:Meter,Heating:EnergyTransfer:Zone:F7 N1 APARTMENT,hourly; !- [J]
Output:Meter:Cumulative,Heating:EnergyTransfer:Zone:F7 N1 APARTMENT,hourly; !- [J]
Output:Meter,Cooling:EnergyTransfer:Zone:F7 N1 APARTMENT,hourly; !- [J]
Output:Meter:Cumulative,Cooling:EnergyTransfer:Zone:F7 N1 APARTMENT,hourly; !- [J]
Output:Meter,EnergyTransfer:Zone:F7 N2 APARTMENT,hourly; !- [J]
Output:Meter:Cumulative,EnergyTransfer:Zone:F7 N2 APARTMENT,hourly; !- [J]
Output:Meter,Heating:EnergyTransfer:Zone:F7 N2 APARTMENT,hourly; !- [J]
Output:Meter:Cumulative,Heating:EnergyTransfer:Zone:F7 N2 APARTMENT,hourly; !- [J]
Output:Meter,Cooling:EnergyTransfer:Zone:F7 N2 APARTMENT,hourly; !- [J]
Output:Meter:Cumulative,Cooling:EnergyTransfer:Zone:F7 N2 APARTMENT,hourly; !- [J]
Output:Meter,EnergyTransfer:Zone:F7 NE APARTMENT,hourly; !- [J]
Output:Meter:Cumulative,EnergyTransfer:Zone:F7 NE APARTMENT,hourly; !- [J]
Output:Meter,Heating:EnergyTransfer:Zone:F7 NE APARTMENT,hourly; !- [J]
Output:Meter:Cumulative,Heating:EnergyTransfer:Zone:F7 NE APARTMENT,hourly; !- [J]
Output:Meter,Cooling:EnergyTransfer:Zone:F7 NE APARTMENT,hourly; !- [J]
Output:Meter:Cumulative,Cooling:EnergyTransfer:Zone:F7 NE APARTMENT,hourly; !- [J]
Output:Meter,EnergyTransfer:Zone:F7 NW APARTMENT,hourly; !- [J]
Output:Meter:Cumulative,EnergyTransfer:Zone:F7 NW APARTMENT,hourly; !- [J]
Output:Meter,Heating:EnergyTransfer:Zone:F7 NW APARTMENT,hourly; !- [J]
Output:Meter:Cumulative,Heating:EnergyTransfer:Zone:F7 NW APARTMENT,hourly; !- [J]
Output:Meter,Cooling:EnergyTransfer:Zone:F7 NW APARTMENT,hourly; !- [J]
Output:Meter:Cumulative,Cooling:EnergyTransfer:Zone:F7 NW APARTMENT,hourly; !- [J]
Output:Meter,EnergyTransfer:Zone:F7 S1 APARTMENT,hourly; !- [J]
Output:Meter:Cumulative,EnergyTransfer:Zone:F7 S1 APARTMENT,hourly; !- [J]
Output:Meter,Heating:EnergyTransfer:Zone:F7 S1 APARTMENT,hourly; !- [J]
Output:Meter:Cumulative,Heating:EnergyTransfer:Zone:F7 S1 APARTMENT,hourly; !- [J]
Output:Meter,Cooling:EnergyTransfer:Zone:F7 S1 APARTMENT,hourly; !- [J]
Output:Meter:Cumulative,Cooling:EnergyTransfer:Zone:F7 S1 APARTMENT,hourly; !- [J]
Output:Meter,EnergyTransfer:Zone:F7 S2 APARTMENT,hourly; !- [J]
Output:Meter:Cumulative,EnergyTransfer:Zone:F7 S2 APARTMENT,hourly; !- [J]
Output:Meter,Heating:EnergyTransfer:Zone:F7 S2 APARTMENT,hourly; !- [J]
Output:Meter:Cumulative,Heating:EnergyTransfer:Zone:F7 S2 APARTMENT,hourly; !- [J]
Output:Meter,Cooling:EnergyTransfer:Zone:F7 S2 APARTMENT,hourly; !- [J]
Output:Meter:Cumulative,Cooling:EnergyTransfer:Zone:F7 S2 APARTMENT,hourly; !- [J]
Output:Meter,EnergyTransfer:Zone:F7 SE APARTMENT,hourly; !- [J]
Output:Meter:Cumulative,EnergyTransfer:Zone:F7 SE APARTMENT,hourly; !- [J]
Output:Meter,Heating:EnergyTransfer:Zone:F7 SE APARTMENT,hourly; !- [J]
Output:Meter:Cumulative,Heating:EnergyTransfer:Zone:F7 SE APARTMENT,hourly; !- [J]
Output:Meter,Cooling:EnergyTransfer:Zone:F7 SE APARTMENT,hourly; !- [J]
Output:Meter:Cumulative,Cooling:EnergyTransfer:Zone:F7 SE APARTMENT,hourly; !- [J]
Output:Meter,EnergyTransfer:Zone:F7 SW APARTMENT,hourly; !- [J]
Output:Meter:Cumulative,EnergyTransfer:Zone:F7 SW APARTMENT,hourly; !- [J]
Output:Meter,Heating:EnergyTransfer:Zone:F7 SW APARTMENT,hourly; !- [J]
Output:Meter:Cumulative,Heating:EnergyTransfer:Zone:F7 SW APARTMENT,hourly; !- [J]
Output:Meter,Cooling:EnergyTransfer:Zone:F7 SW APARTMENT,hourly; !- [J]
Output:Meter:Cumulative,Cooling:EnergyTransfer:Zone:F7 SW APARTMENT,hourly; !- [J]
Output:Meter,EnergyTransfer:Zone:F8 CORRIDOR,hourly; !- [J]
Output:Meter:Cumulative,EnergyTransfer:Zone:F8 CORRIDOR,hourly; !- [J]
Output:Meter,Heating:EnergyTransfer:Zone:F8 CORRIDOR,hourly; !- [J]
Output:Meter:Cumulative,Heating:EnergyTransfer:Zone:F8 CORRIDOR,hourly; !- [J]
Output:Meter,Cooling:EnergyTransfer:Zone:F8 CORRIDOR,hourly; !- [J]
Output:Meter:Cumulative,Cooling:EnergyTransfer:Zone:F8 CORRIDOR,hourly; !- [J]
Output:Meter,EnergyTransfer:Zone:F8 N1 APARTMENT,hourly; !- [J]
Output:Meter:Cumulative,EnergyTransfer:Zone:F8 N1 APARTMENT,hourly; !- [J]
Output:Meter,Heating:EnergyTransfer:Zone:F8 N1 APARTMENT,hourly; !- [J]
Output:Meter:Cumulative,Heating:EnergyTransfer:Zone:F8 N1 APARTMENT,hourly; !- [J]
Output:Meter,Cooling:EnergyTransfer:Zone:F8 N1 APARTMENT,hourly; !- [J]
Output:Meter:Cumulative,Cooling:EnergyTransfer:Zone:F8 N1 APARTMENT,hourly; !- [J]
Output:Meter,EnergyTransfer:Zone:F8 N2 APARTMENT,hourly; !- [J]
Output:Meter:Cumulative,EnergyTransfer:Zone:F8 N2 APARTMENT,hourly; !- [J]
Output:Meter,Heating:EnergyTransfer:Zone:F8 N2 APARTMENT,hourly; !- [J]
Output:Meter:Cumulative,Heating:EnergyTransfer:Zone:F8 N2 APARTMENT,hourly; !- [J]
Output:Meter,Cooling:EnergyTransfer:Zone:F8 N2 APARTMENT,hourly; !- [J]
Output:Meter:Cumulative,Cooling:EnergyTransfer:Zone:F8 N2 APARTMENT,hourly; !- [J]
Output:Meter,EnergyTransfer:Zone:F8 NE APARTMENT,hourly; !- [J]
Output:Meter:Cumulative,EnergyTransfer:Zone:F8 NE APARTMENT,hourly; !- [J]
Output:Meter,Heating:EnergyTransfer:Zone:F8 NE APARTMENT,hourly; !- [J]
Output:Meter:Cumulative,Heating:EnergyTransfer:Zone:F8 NE APARTMENT,hourly; !- [J]
Output:Meter,Cooling:EnergyTransfer:Zone:F8 NE APARTMENT,hourly; !- [J]
Output:Meter:Cumulative,Cooling:EnergyTransfer:Zone:F8 NE APARTMENT,hourly; !- [J]
Output:Meter,EnergyTransfer:Zone:F8 NW APARTMENT,hourly; !- [J]
Output:Meter:Cumulative,EnergyTransfer:Zone:F8 NW APARTMENT,hourly; !- [J]
Output:Meter,Heating:EnergyTransfer:Zone:F8 NW APARTMENT,hourly; !- [J]
Output:Meter:Cumulative,Heating:EnergyTransfer:Zone:F8 NW APARTMENT,hourly; !- [J]
Output:Meter,Cooling:EnergyTransfer:Zone:F8 NW APARTMENT,hourly; !- [J]
Output:Meter:Cumulative,Cooling:EnergyTransfer:Zone:F8 NW APARTMENT,hourly; !- [J]
Output:Meter,EnergyTransfer:Zone:F8 S1 APARTMENT,hourly; !- [J]
Output:Meter:Cumulative,EnergyTransfer:Zone:F8 S1 APARTMENT,hourly; !- [J]
Output:Meter,Heating:EnergyTransfer:Zone:F8 S1 APARTMENT,hourly; !- [J]
Output:Meter:Cumulative,Heating:EnergyTransfer:Zone:F8 S1 APARTMENT,hourly; !- [J]
Output:Meter,Cooling:EnergyTransfer:Zone:F8 S1 APARTMENT,hourly; !- [J]
Output:Meter:Cumulative,Cooling:EnergyTransfer:Zone:F8 S1 APARTMENT,hourly; !- [J]
Output:Meter,EnergyTransfer:Zone:F8 S2 APARTMENT,hourly; !- [J]
Output:Meter:Cumulative,EnergyTransfer:Zone:F8 S2 APARTMENT,hourly; !- [J]
Output:Meter,Heating:EnergyTransfer:Zone:F8 S2 APARTMENT,hourly; !- [J]
Output:Meter:Cumulative,Heating:EnergyTransfer:Zone:F8 S2 APARTMENT,hourly; !- [J]
Output:Meter,Cooling:EnergyTransfer:Zone:F8 S2 APARTMENT,hourly; !- [J]
Output:Meter:Cumulative,Cooling:EnergyTransfer:Zone:F8 S2 APARTMENT,hourly; !- [J]
Output:Meter,EnergyTransfer:Zone:F8 SE APARTMENT,hourly; !- [J]
Output:Meter:Cumulative,EnergyTransfer:Zone:F8 SE APARTMENT,hourly; !- [J]
Output:Meter,Heating:EnergyTransfer:Zone:F8 SE APARTMENT,hourly; !- [J]
Output:Meter:Cumulative,Heating:EnergyTransfer:Zone:F8 SE APARTMENT,hourly; !- [J]
Output:Meter,Cooling:EnergyTransfer:Zone:F8 SE APARTMENT,hourly; !- [J]
Output:Meter:Cumulative,Cooling:EnergyTransfer:Zone:F8 SE APARTMENT,hourly; !- [J]
Output:Meter,EnergyTransfer:Zone:F8 SW APARTMENT,hourly; !- [J]
Output:Meter:Cumulative,EnergyTransfer:Zone:F8 SW APARTMENT,hourly; !- [J]
Output:Meter,Heating:EnergyTransfer:Zone:F8 SW APARTMENT,hourly; !- [J]
Output:Meter:Cumulative,Heating:EnergyTransfer:Zone:F8 SW APARTMENT,hourly; !- [J]
Output:Meter,Cooling:EnergyTransfer:Zone:F8 SW APARTMENT,hourly; !- [J]
Output:Meter:Cumulative,Cooling:EnergyTransfer:Zone:F8 SW APARTMENT,hourly; !- [J]
Output:Meter,EnergyTransfer:Zone:F9 CORRIDOR,hourly; !- [J]
Output:Meter:Cumulative,EnergyTransfer:Zone:F9 CORRIDOR,hourly; !- [J]
Output:Meter,Heating:EnergyTransfer:Zone:F9 CORRIDOR,hourly; !- [J]
Output:Meter:Cumulative,Heating:EnergyTransfer:Zone:F9 CORRIDOR,hourly; !- [J]
Output:Meter,Cooling:EnergyTransfer:Zone:F9 CORRIDOR,hourly; !- [J]
Output:Meter:Cumulative,Cooling:EnergyTransfer:Zone:F9 CORRIDOR,hourly; !- [J]
Output:Meter,EnergyTransfer:Zone:F9 N1 APARTMENT,hourly; !- [J]
Output:Meter:Cumulative,EnergyTransfer:Zone:F9 N1 APARTMENT,hourly; !- [J]
Output:Meter,Heating:EnergyTransfer:Zone:F9 N1 APARTMENT,hourly; !- [J]
Output:Meter:Cumulative,Heating:EnergyTransfer:Zone:F9 N1 APARTMENT,hourly; !- [J]
[...]
Output:Meter:Cumulative,Heating:EnergyTransfer:Zone:F9 NE APARTMENT,hourly; !- [J]
Output:Meter,Cooling:EnergyTransfer:Zone:F9 NE APARTMENT,hourly; !- [J]
Output:Meter:Cumulative,Cooling:EnergyTransfer:Zone:F9 NE APARTMENT,hourly; !- [J]
Output:Meter,EnergyTransfer:Zone:F9 NW APARTMENT,hourly; !- [J]
Output:Meter:Cumulative,EnergyTransfer:Zone:F9 NW APARTMENT,hourly; !- [J]
Output:Meter,Heating:EnergyTransfer:Zone:F9 NW APARTMENT,hourly; !- [J]
Output:Meter:Cumulative,Heating:EnergyTransfer:Zone:F9 NW APARTMENT,hourly; !- [J]
Output:Meter,Cooling:EnergyTransfer:Zone:F9 NW APARTMENT,hourly; !- [J]
Output:Meter:Cumulative,Cooling:EnergyTransfer:Zone:F9 NW APARTMENT,hourly; !- [J]
Output:Meter,EnergyTransfer:Zone:F9 S1 APARTMENT,hourly; !- [J]
Output:Meter:Cumulative,EnergyTransfer:Zone:F9 S1 APARTMENT,hourly; !- [J]
Output:Meter,Heating:EnergyTransfer:Zone:F9 S1 APARTMENT,hourly; !- [J]
Output:Meter:Cumulative,Heating:EnergyTransfer:Zone:F9 S1 APARTMENT,hourly; !- [J]
Output:Meter,Cooling:EnergyTransfer:Zone:F9 S1 APARTMENT,hourly; !- [J]
Output:Meter:Cumulative,Cooling:EnergyTransfer:Zone:F9 S1 APARTMENT,hourly; !- [J]
Output:Meter,EnergyTransfer:Zone:F9 S2 APARTMENT,hourly; !- [J]
Output:Meter:Cumulative,EnergyTransfer:Zone:F9 S2 APARTMENT,hourly; !- [J]
Output:Meter,Heating:EnergyTransfer:Zone:F9 S2 APARTMENT,hourly; !- [J]
Output:Meter:Cumulative,Heating:EnergyTransfer:Zone:F9 S2 APARTMENT,hourly; !- [J]
Output:Meter,Cooling:EnergyTransfer:Zone:F9 S2 APARTMENT,hourly; !- [J]
Output:Meter:Cumulative,Cooling:EnergyTransfer:Zone:F9 S2 APARTMENT,hourly; !- [J]
Output:Meter,EnergyTransfer:Zone:F9 SE APARTMENT,hourly; !- [J]
Output:Meter:Cumulative,EnergyTransfer:Zone:F9 SE APARTMENT,hourly; !- [J]
Output:Meter,Heating:EnergyTransfer:Zone:F9 SE APARTMENT,hourly; !- [J]
Output:Meter:Cumulative,Heating:EnergyTransfer:Zone:F9 SE APARTMENT,hourly; !- [J]
Output:Meter,Cooling:EnergyTransfer:Zone:F9 SE APARTMENT,hourly; !- [J]
Output:Meter:Cumulative,Cooling:EnergyTransfer:Zone:F9 SE APARTMENT,hourly; !- [J]
Output:Meter,EnergyTransfer:Zone:F9 SW APARTMENT,hourly; !- [J]
Output:Meter:Cumulative,EnergyTransfer:Zone:F9 SW APARTMENT,hourly; !- [J]
Output:Meter,Heating:EnergyTransfer:Zone:F9 SW APARTMENT,hourly; !- [J]
Output:Meter:Cumulative,Heating:EnergyTransfer:Zone:F9 SW APARTMENT,hourly; !- [J]
Output:Meter,Cooling:EnergyTransfer:Zone:F9 SW APARTMENT,hourly; !- [J]
Output:Meter:Cumulative,Cooling:EnergyTransfer:Zone:F9 SW APARTMENT,hourly; !- [J]
Output:Meter,EnergyTransfer:Zone:G CORRIDOR,hourly; !- [J]
Output:Meter:Cumulative,EnergyTransfer:Zone:G CORRIDOR,hourly; !- [J]
Output:Meter,Heating:EnergyTransfer:Zone:G CORRIDOR,hourly; !- [J]
Output:Meter:Cumulative,Heating:EnergyTransfer:Zone:G CORRIDOR,hourly; !- [J]
Output:Meter,Cooling:EnergyTransfer:Zone:G CORRIDOR,hourly; !- [J]
Output:Meter:Cumulative,Cooling:EnergyTransfer:Zone:G CORRIDOR,hourly; !- [J]
Output:Meter,EnergyTransfer:Zone:G N1 APARTMENT,hourly; !- [J]
Output:Meter:Cumulative,EnergyTransfer:Zone:G N1 APARTMENT,hourly; !- [J]
Output:Meter,Heating:EnergyTransfer:Zone:G N1 APARTMENT,hourly; !- [J]
Output:Meter:Cumulative,Heating:EnergyTransfer:Zone:G N1 APARTMENT,hourly; !- [J]
Output:Meter,Cooling:EnergyTransfer:Zone:G N1 APARTMENT,hourly; !- [J]
Output:Meter:Cumulative,Cooling:EnergyTransfer:Zone:G N1 APARTMENT,hourly; !- [J]
Output:Meter,EnergyTransfer:Zone:G N2 APARTMENT,hourly; !- [J]
Output:Meter:Cumulative,EnergyTransfer:Zone:G N2 APARTMENT,hourly; !- [J]
Output:Meter,Heating:EnergyTransfer:Zone:G N2 APARTMENT,hourly; !- [J]
Output:Meter:Cumulative,Heating:EnergyTransfer:Zone:G N2 APARTMENT,hourly; !- [J]
Output:Meter,Cooling:EnergyTransfer:Zone:G N2 APARTMENT,hourly; !- [J]
Output:Meter:Cumulative,Cooling:EnergyTransfer:Zone:G N2 APARTMENT,hourly; !- [J]
Output:Meter,EnergyTransfer:Zone:G NE APARTMENT,hourly; !- [J]
Output:Meter:Cumulative,EnergyTransfer:Zone:G NE APARTMENT,hourly; !- [J]
Output:Meter,Heating:EnergyTransfer:Zone:G NE APARTMENT,hourly; !- [J]
Output:Meter:Cumulative,Heating:EnergyTransfer:Zone:G NE APARTMENT,hourly; !- [J]
Output:Meter,Cooling:EnergyTransfer:Zone:G NE APARTMENT,hourly; !- [J]
Output:Meter:Cumulative,Cooling:EnergyTransfer:Zone:G NE APARTMENT,hourly; !- [J]
Output:Meter,EnergyTransfer:Zone:G NW APARTMENT,hourly; !- [J]
Output:Meter:Cumulative,EnergyTransfer:Zone:G NW APARTMENT,hourly; !- [J]
Output:Meter,Heating:EnergyTransfer:Zone:G NW APARTMENT,hourly; !- [J]
Output:Meter:Cumulative,Heating:EnergyTransfer:Zone:G NW APARTMENT,hourly; !- [J]
Output:Meter,Cooling:EnergyTransfer:Zone:G NW APARTMENT,hourly; !- [J]
Output:Meter:Cumulative,Cooling:EnergyTransfer:Zone:G NW APARTMENT,hourly; !- [J]
Output:Meter,EnergyTransfer:Zone:G S1 APARTMENT,hourly; !- [J]
Output:Meter:Cumulative,EnergyTransfer:Zone:G S1 APARTMENT,hourly; !- [J]
Output:Meter,Heating:EnergyTransfer:Zone:G S1 APARTMENT,hourly; !- [J]
Output:Meter:Cumulative,Heating:EnergyTransfer:Zone:G S1 APARTMENT,hourly; !- [J]
Output:Meter,Cooling:EnergyTransfer:Zone:G S1 APARTMENT,hourly; !- [J]
Output:Meter:Cumulative,Cooling:EnergyTransfer:Zone:G S1 APARTMENT,hourly; !- [J]
Output:Meter,EnergyTransfer:Zone:G S2 APARTMENT,hourly; !- [J]
Output:Meter:Cumulative,EnergyTransfer:Zone:G S2 APARTMENT,hourly; !- [J]
Output:Meter,Heating:EnergyTransfer:Zone:G S2 APARTMENT,hourly; !- [J]
Output:Meter:Cumulative,Heating:EnergyTransfer:Zone:G S2 APARTMENT,hourly; !- [J]
Output:Meter,Cooling:EnergyTransfer:Zone:G S2 APARTMENT,hourly; !- [J]
Output:Meter:Cumulative,Cooling:EnergyTransfer:Zone:G S2 APARTMENT,hourly; !- [J]
Output:Meter,EnergyTransfer:Zone:G SW APARTMENT,hourly; !- [J]
Output:Meter:Cumulative,EnergyTransfer:Zone:G SW APARTMENT,hourly; !- [J]
Output:Meter,Heating:EnergyTransfer:Zone:G SW APARTMENT,hourly; !- [J]
Output:Meter:Cumulative,Heating:EnergyTransfer:Zone:G SW APARTMENT,hourly; !- [J]
Output:Meter,Cooling:EnergyTransfer:Zone:G SW APARTMENT,hourly; !- [J]
Output:Meter:Cumulative,Cooling:EnergyTransfer:Zone:G SW APARTMENT,hourly; !- [J]
Output:Meter,EnergyTransfer:Zone:M CORRIDOR,hourly; !- [J]
Output:Meter:Cumulative,EnergyTransfer:Zone:M CORRIDOR,hourly; !- [J]
Output:Meter,Heating:EnergyTransfer:Zone:M CORRIDOR,hourly; !- [J]
Output:Meter:Cumulative,Heating:EnergyTransfer:Zone:M CORRIDOR,hourly; !- [J]
Output:Meter,Cooling:EnergyTransfer:Zone:M CORRIDOR,hourly; !- [J]
Output:Meter:Cumulative,Cooling:EnergyTransfer:Zone:M CORRIDOR,hourly; !- [J]
Output:Meter,EnergyTransfer:Zone:M N1 APARTMENT,hourly; !- [J]
Output:Meter:Cumulative,EnergyTransfer:Zone:M N1 APARTMENT,hourly; !- [J]
Output:Meter,Heating:EnergyTransfer:Zone:M N1 APARTMENT,hourly; !- [J]
Output:Meter:Cumulative,Heating:EnergyTransfer:Zone:M N1 APARTMENT,hourly; !- [J]
Output:Meter,Cooling:EnergyTransfer:Zone:M N1 APARTMENT,hourly; !- [J]
Output:Meter:Cumulative,Cooling:EnergyTransfer:Zone:M N1 APARTMENT,hourly; !- [J]
Output:Meter,EnergyTransfer:Zone:M N2 APARTMENT,hourly; !- [J]
Output:Meter:Cumulative,EnergyTransfer:Zone:M N2 APARTMENT,hourly; !- [J]
Output:Meter,Heating:EnergyTransfer:Zone:M N2 APARTMENT,hourly; !- [J]
Output:Meter:Cumulative,Heating:EnergyTransfer:Zone:M N2 APARTMENT,hourly; !- [J]
Output:Meter,Cooling:EnergyTransfer:Zone:M N2 APARTMENT,hourly; !- [J]
Output:Meter:Cumulative,Cooling:EnergyTransfer:Zone:M N2 APARTMENT,hourly; !- [J]
Output:Meter,EnergyTransfer:Zone:M NE APARTMENT,hourly; !- [J]
Output:Meter:Cumulative,EnergyTransfer:Zone:M NE APARTMENT,hourly; !- [J]
Output:Meter,Heating:EnergyTransfer:Zone:M NE APARTMENT,hourly; !- [J]
Output:Meter:Cumulative,Heating:EnergyTransfer:Zone:M NE APARTMENT,hourly; !- [J]
Output:Meter,Cooling:EnergyTransfer:Zone:M NE APARTMENT,hourly; !- [J]
Output:Meter:Cumulative,Cooling:EnergyTransfer:Zone:M NE APARTMENT,hourly; !- [J]
Output:Meter,EnergyTransfer:Zone:M NW APARTMENT,hourly; !- [J]
Output:Meter:Cumulative,EnergyTransfer:Zone:M NW APARTMENT,hourly; !- [J]
Output:Meter,Heating:EnergyTransfer:Zone:M NW APARTMENT,hourly; !- [J]
Output:Meter:Cumulative,Heating:EnergyTransfer:Zone:M NW APARTMENT,hourly; !- [J]
Output:Meter,Cooling:EnergyTransfer:Zone:M NW APARTMENT,hourly; !- [J]
Output:Meter:Cumulative,Cooling:EnergyTransfer:Zone:M NW APARTMENT,hourly; !- [J]
Output:Meter,EnergyTransfer:Zone:M S1 APARTMENT,hourly; !- [J]
Output:Meter:Cumulative,EnergyTransfer:Zone:M S1 APARTMENT,hourly; !- [J]
Output:Meter,Heating:EnergyTransfer:Zone:M S1 APARTMENT,hourly; !- [J]
Output:Meter:Cumulative,Heating:EnergyTransfer:Zone:M S1 APARTMENT,hourly; !- [J]
Output:Meter,Cooling:EnergyTransfer:Zone:M S1 APARTMENT,hourly; !- [J]
Output:Meter:Cumulative,Cooling:EnergyTransfer:Zone:M S1 APARTMENT,hourly; !- [J]
Output:Meter,EnergyTransfer:Zone:M S2 APARTMENT,hourly; !- [J]
Output:Meter:Cumulative,EnergyTransfer:Zone:M S2 APARTMENT,hourly; !- [J]
Output:Meter,Heating:EnergyTransfer:Zone:M S2 APARTMENT,hourly; !- [J]
Output:Meter:Cumulative,Heating:EnergyTransfer:Zone:M S2 APARTMENT,hourly; !- [J]
Output:Meter,Cooling:EnergyTransfer:Zone:M S2 APARTMENT,hourly; !- [J]
Output:Meter:Cumulative,Cooling:EnergyTransfer:Zone:M S2 APARTMENT,hourly; !- [J]
Output:Meter,EnergyTransfer:Zone:M SE APARTMENT,hourly; !- [J]
Output:Meter:Cumulative,EnergyTransfer:Zone:M SE APARTMENT,hourly; !- [J]
Output:Meter,Heating:EnergyTransfer:Zone:M SE APARTMENT,hourly; !- [J]
Output:Meter:Cumulative,Heating:EnergyTransfer:Zone:M SE APARTMENT,hourly; !- [J]
Output:Meter,Cooling:EnergyTransfer:Zone:M SE APARTMENT,hourly; !- [J]
Output:Meter:Cumulative,Cooling:EnergyTransfer:Zone:M SE APARTMENT,hourly; !- [J]
Output:Meter,EnergyTransfer:Zone:M SW APARTMENT,hourly; !- [J]
Output:Meter:Cumulative,EnergyTransfer:Zone:M SW APARTMENT,hourly; !- [J]
Output:Meter,Heating:EnergyTransfer:Zone:M SW APARTMENT,hourly; !- [J]
Output:Meter:Cumulative,Heating:EnergyTransfer:Zone:M SW APARTMENT,hourly; !- [J]
Output:Meter,Cooling:EnergyTransfer:Zone:M SW APARTMENT,hourly; !- [J]
Output:Meter:Cumulative,Cooling:EnergyTransfer:Zone:M SW APARTMENT,hourly; !- [J]
Output:Meter,EnergyTransfer:Zone:OFFICE,hourly; !- [J]
Output:Meter:Cumulative,EnergyTransfer:Zone:OFFICE,hourly; !- [J]
Output:Meter,Heating:EnergyTransfer:Zone:OFFICE,hourly; !- [J]
Output:Meter:Cumulative,Heating:EnergyTransfer:Zone:OFFICE,hourly; !- [J]
Output:Meter,Cooling:EnergyTransfer:Zone:OFFICE,hourly; !- [J]
Output:Meter:Cumulative,Cooling:EnergyTransfer:Zone:OFFICE,hourly; !- [J]
Output:Meter,EnergyTransfer:Zone:T CORRIDOR,hourly; !- [J]
Output:Meter:Cumulative,EnergyTransfer:Zone:T CORRIDOR,hourly; !- [J]
Output:Meter,Heating:EnergyTransfer:Zone:T CORRIDOR,hourly; !- [J]
Output:Meter:Cumulative,Heating:EnergyTransfer:Zone:T CORRIDOR,hourly; !- [J]
Output:Meter,Cooling:EnergyTransfer:Zone:T CORRIDOR,hourly; !- [J]
Output:Meter:Cumulative,Cooling:EnergyTransfer:Zone:T CORRIDOR,hourly; !- [J]
Output:Meter,EnergyTransfer:Zone:T N1 APARTMENT,hourly; !- [J]
Output:Meter:Cumulative,EnergyTransfer:Zone:T N1 APARTMENT,hourly; !- [J]
Output:Meter,Heating:EnergyTransfer:Zone:T N1 APARTMENT,hourly; !- [J]
Output:Meter:Cumulative,Heating:EnergyTransfer:Zone:T N1 APARTMENT,hourly; !- [J]
Output:Meter,Cooling:EnergyTransfer:Zone:T N1 APARTMENT,hourly; !- [J]
Output:Meter:Cumulative,Cooling:EnergyTransfer:Zone:T N1 APARTMENT,hourly; !- [J]
Output:Meter,EnergyTransfer:Zone:T N2 APARTMENT,hourly; !- [J]
Output:Meter:Cumulative,EnergyTransfer:Zone:T N2 APARTMENT,hourly; !- [J]
Output:Meter,Heating:EnergyTransfer:Zone:T N2 APARTMENT,hourly; !- [J]
Output:Meter:Cumulative,Heating:EnergyTransfer:Zone:T N2 APARTMENT,hourly; !- [J]
Output:Meter,Cooling:EnergyTransfer:Zone:T N2 APARTMENT,hourly; !- [J]
Output:Meter:Cumulative,Cooling:EnergyTransfer:Zone:T N2 APARTMENT,hourly; !- [J]
Output:Meter,EnergyTransfer:Zone:T NE APARTMENT,hourly; !- [J]
Output:Meter:Cumulative,EnergyTransfer:Zone:T NE APARTMENT,hourly; !- [J]
Output:Meter,Heating:EnergyTransfer:Zone:T NE APARTMENT,hourly; !- [J]
Output:Meter:Cumulative,Heating:EnergyTransfer:Zone:T NE APARTMENT,hourly; !- [J]
Output:Meter,Cooling:EnergyTransfer:Zone:T NE APARTMENT,hourly; !- [J]
Output:Meter:Cumulative,Cooling:EnergyTransfer:Zone:T NE APARTMENT,hourly; !- [J]
Output:Meter,EnergyTransfer:Zone:T NW APARTMENT,hourly; !- [J]
Output:Meter:Cumulative,EnergyTransfer:Zone:T NW APARTMENT,hourly; !- [J]
Output:Meter,Heating:EnergyTransfer:Zone:T NW APARTMENT,hourly; !- [J]
Output:Meter:Cumulative,Heating:EnergyTransfer:Zone:T NW APARTMENT,hourly; !- [J]
Output:Meter,Cooling:EnergyTransfer:Zone:T NW APARTMENT,hourly; !- [J]
Output:Meter:Cumulative,Cooling:EnergyTransfer:Zone:T NW APARTMENT,hourly; !- [J]
Output:Meter,EnergyTransfer:Zone:T S1 APARTMENT,hourly; !- [J]
Output:Meter:Cumulative,EnergyTransfer:Zone:T S1 APARTMENT,hourly; !- [J]
Output:Meter,Heating:EnergyTransfer:Zone:T S1 APARTMENT,hourly; !- [J]
Output:Meter:Cumulative,Heating:EnergyTransfer:Zone:T S1 APARTMENT,hourly; !- [J]
Output:Meter,Cooling:EnergyTransfer:Zone:T S1 APARTMENT,hourly; !- [J]
Output:Meter:Cumulative,Cooling:EnergyTransfer:Zone:T S1 APARTMENT,hourly; !- [J]
Output:Meter,EnergyTransfer:Zone:T S2 APARTMENT,hourly; !- [J]
Output:Meter:Cumulative,EnergyTransfer:Zone:T S2 APARTMENT,hourly; !- [J]
Output:Meter,Heating:EnergyTransfer:Zone:T S2 APARTMENT,hourly; !- [J]
Output:Meter:Cumulative,Heating:EnergyTransfer:Zone:T S2 APARTMENT,hourly; !- [J]
Output:Meter,Cooling:EnergyTransfer:Zone:T S2 APARTMENT,hourly; !- [J]
Output:Meter:Cumulative,Cooling:EnergyTransfer:Zone:T S2 APARTMENT,hourly; !- [J]
Output:Meter,EnergyTransfer:Zone:T SE APARTMENT,hourly; !- [J]
Output:Meter:Cumulative,EnergyTransfer:Zone:T SE APARTMENT,hourly; !- [J]
Output:Meter,Heating:EnergyTransfer:Zone:T SE APARTMENT,hourly; !- [J]
Output:Meter:Cumulative,Heating:EnergyTransfer:Zone:T SE APARTMENT,hourly; !- [J]
Output:Meter,Cooling:EnergyTransfer:Zone:T SE APARTMENT,hourly; !- [J]
Output:Meter:Cumulative,Cooling:EnergyTransfer:Zone:T SE APARTMENT,hourly; !- [J]
Output:Meter,EnergyTransfer:Zone:T SW APARTMENT,hourly; !- [J]
Output:Meter:Cumulative,EnergyTransfer:Zone:T SW APARTMENT,hourly; !- [J]
Output:Meter,Heating:EnergyTransfer:Zone:T SW APARTMENT,hourly; !- [J]
Output:Meter:Cumulative,Heating:EnergyTransfer:Zone:T SW APARTMENT,hourly; !- [J]
Output:Meter,Cooling:EnergyTransfer:Zone:T SW APARTMENT,hourly; !- [J]
Output:Meter:Cumulative,Cooling:EnergyTransfer:Zone:T SW APARTMENT,hourly; !- [J]
Output:Meter,WaterUse:WaterSystems:Water,hourly; !- [m3]
Output:Meter:Cumulative,WaterUse:WaterSystems:Water,hourly; !- [m3]
Output:Meter,WaterUse:WaterSystems:MainsWater,hourly; !- [m3]
Output:Meter:Cumulative,WaterUse:WaterSystems:MainsWater,hourly; !- [m3]
Output:Meter,EnergyTransfer:Plant,hourly; !- [J]
Output:Meter:Cumulative,EnergyTransfer:Plant,hourly; !- [J]
Output:Meter,WaterSystems:EnergyTransfer,hourly; !- [J]
Output:Meter:Cumulative,WaterSystems:EnergyTransfer,hourly; !- [J]
Output:Meter,WaterUse:WaterSystems:EnergyTransfer,hourly; !- [J]
Output:Meter:Cumulative,WaterUse:WaterSystems:EnergyTransfer,hourly; !- [J]
Output:Meter,Electricity:HVAC,hourly; !- [J]
Output:Meter:Cumulative,Electricity:HVAC,hourly; !- [J]
Output:Meter,ExteriorEquipment:Electricity,hourly; !- [J]
Output:Meter:Cumulative,ExteriorEquipment:Electricity,hourly; !- [J]
Output:Meter,Transformer:ExteriorEquipment:Electricity,hourly; !- [J]
Output:Meter:Cumulative,Transformer:ExteriorEquipment:Electricity,hourly; !- [J]
Output:Meter,ElectricityPurchased:Facility,hourly; !- [J]
Output:Meter:Cumulative,ElectricityPurchased:Facility,hourly; !- [J]
Output:Meter,ElectricityPurchased:Plant,hourly; !- [J]
Output:Meter:Cumulative,ElectricityPurchased:Plant,hourly; !- [J]
Output:Meter,Cogeneration:ElectricityPurchased,hourly; !- [J]
Output:Meter:Cumulative,Cogeneration:ElectricityPurchased,hourly; !- [J]
Output:Meter,ElectricitySurplusSold:Facility,hourly; !- [J]
Output:Meter:Cumulative,ElectricitySurplusSold:Facility,hourly; !- [J]
Output:Meter,ElectricitySurplusSold:Plant,hourly; !- [J]
Output:Meter:Cumulative,ElectricitySurplusSold:Plant,hourly; !- [J]
Output:Meter,Cogeneration:ElectricitySurplusSold,hourly; !- [J]
Output:Meter:Cumulative,Cogeneration:ElectricitySurplusSold,hourly; !- [J]
Output:Meter,ElectricityNet:Facility,hourly; !- [J]
Output:Meter:Cumulative,ElectricityNet:Facility,hourly; !- [J]
Output:Meter,ElectricityNet:Plant,hourly; !- [J]
Output:Meter:Cumulative,ElectricityNet:Plant,hourly; !- [J]
Output:Meter,Cogeneration:ElectricityNet,hourly; !- [J]
Output:Meter:Cumulative,Cogeneration:ElectricityNet,hourly; !- [J]
Output:Meter,EnergyTransfer:HVAC,hourly; !- [J]
Output:Meter:Cumulative,EnergyTransfer:HVAC,hourly; !- [J]
Output:Meter,HeatRecoveryForHeating:EnergyTransfer,hourly; !- [J]
Output:Meter:Cumulative,HeatRecoveryForHeating:EnergyTransfer,hourly; !- [J]
Output:Meter,HeatRecoveryForCooling:EnergyTransfer,hourly; !- [J]
Output:Meter:Cumulative,HeatRecoveryForCooling:EnergyTransfer,hourly; !- [J]
Output:Meter,HeatRecovery:Electricity,hourly; !- [J]
Output:Meter:Cumulative,HeatRecovery:Electricity,hourly; !- [J]
Output:Meter,General:Fans:Electricity,hourly; !- [J]
Output:Meter:Cumulative,General:Fans:Electricity,hourly; !- [J]
Output:Meter,ExteriorLights:Electricity,hourly; !- [J]
Output:Meter:Cumulative,ExteriorLights:Electricity,hourly; !- [J]
Output:Meter,General:ExteriorLights:Electricity,hourly; !- [J]
Output:Meter:Cumulative,General:ExteriorLights:Electricity,hourly; !- [J]
Output:Meter,Cooling:Electricity,hourly; !- [J]
Output:Meter:Cumulative,Cooling:Electricity,hourly; !- [J]
Output:Meter,CoolingCoils:EnergyTransfer,hourly; !- [J]
Output:Meter:Cumulative,CoolingCoils:EnergyTransfer,hourly; !- [J]
Output:Meter,PlantLoopCoolingDemand:Facility,hourly; !- [J]
Output:Meter:Cumulative,PlantLoopCoolingDemand:Facility,hourly; !- [J]
Output:Meter,PlantLoopCoolingDemand:HVAC,hourly; !- [J]
Output:Meter:Cumulative,PlantLoopCoolingDemand:HVAC,hourly; !- [J]
Output:Meter,CoolingCoils:PlantLoopCoolingDemand,hourly; !- [J]
Output:Meter:Cumulative,CoolingCoils:PlantLoopCoolingDemand,hourly; !- [J]
Output:Meter,Heating:Electricity,hourly; !- [J]
Output:Meter:Cumulative,Heating:Electricity,hourly; !- [J]
Output:Meter,HeatingCoils:EnergyTransfer,hourly; !- [J]
Output:Meter:Cumulative,HeatingCoils:EnergyTransfer,hourly; !- [J]
Output:Meter,PlantLoopHeatingDemand:HVAC,hourly; !- [J]
Output:Meter:Cumulative,PlantLoopHeatingDemand:HVAC,hourly; !- [J]
Output:Meter,HeatingCoils:PlantLoopHeatingDemand,hourly; !- [J]
Output:Meter:Cumulative,HeatingCoils:PlantLoopHeatingDemand,hourly; !- [J]
Output:Meter,Electricity:Plant,hourly; !- [J]
Output:Meter:Cumulative,Electricity:Plant,hourly; !- [J]
Output:Meter,HeatRejection:Electricity,hourly; !- [J]
Output:Meter:Cumulative,HeatRejection:Electricity,hourly; !- [J]
Output:Meter,HeatRejection:Water,hourly; !- [m3]
Output:Meter:Cumulative,HeatRejection:Water,hourly; !- [m3]
Output:Meter,HeatRejection:MainsWater,hourly; !- [m3]
Output:Meter:Cumulative,HeatRejection:MainsWater,hourly; !- [m3]
Output:Meter,Boilers:EnergyTransfer,hourly; !- [J]
Output:Meter:Cumulative,Boilers:EnergyTransfer,hourly; !- [J]
Output:Meter,Heating:Gas,hourly; !- [J]
Output:Meter:Cumulative,Heating:Gas,hourly; !- [J]
Output:Meter,Boiler:Heating:Gas,hourly; !- [J]
Output:Meter:Cumulative,Boiler:Heating:Gas,hourly; !- [J]
Output:Meter,Boiler Parasitic:Heating:Electricity,hourly; !- [J]
Output:Meter:Cumulative,Boiler Parasitic:Heating:Electricity,hourly; !- [J]
Output:Meter,Pumps:Electricity,hourly; !- [J]
Output:Meter:Cumulative,Pumps:Electricity,hourly; !- [J]
Output:Meter,Carbon Equivalent:Facility,hourly; !- [kg]
Output:Meter:Cumulative,Carbon Equivalent:Facility,hourly; !- [kg]
Output:Meter,CarbonEquivalentEmissions:Carbon Equivalent,hourly; !- [kg]
Output:Meter:Cumulative,CarbonEquivalentEmissions:Carbon Equivalent,hourly; !- [kg]
Output:Meter,WIRED_LTG_ELECTRICITY,hourly; !- [J]
Output:Meter:Cumulative,WIRED_LTG_ELECTRICITY,hourly; !- [J]
Output:Meter,WIRED_INT_EQUIP,hourly; !- [J]
Output:Meter:Cumulative,WIRED_INT_EQUIP,hourly; !- [J]
