Program Version,EnergyPlus, Version 9.0.1-bb7ca4f0da, YMD=2024.08.21 15:48
! <Version>, Version ID
 Version, 9.0
! <Timesteps per Hour>, #TimeSteps, Minutes per TimeStep {minutes}
 Timesteps per Hour, 12,  5
! <System Convergence Limits>, Minimum System TimeStep {minutes}, Max HVAC Iterations, Minimum Plant Iterations, Maximum Plant Iterations
 System Convergence Limits, 1, 20, 2, 8
! <Simulation Control>, Do Zone Sizing, Do System Sizing, Do Plant Sizing, Do Design Days, Do Weather Simulation, Do HVAC Sizing Simulation
 Simulation Control, Yes, Yes, Yes, No, Yes, No
! <Output Reporting Tolerances>, Tolerance for Time Heating Setpoint Not Met, Tolerance for Zone Cooling Setpoint Not Met Time
 Output Reporting Tolerances, 0.556, 0.556, 
! <Site:GroundTemperature:BuildingSurface>,Jan{C},Feb{C},Mar{C},Apr{C},May{C},Jun{C},Jul{C},Aug{C},Sep{C},Oct{C},Nov{C},Dec{C}
 Site:GroundTemperature:BuildingSurface,  18.00,  18.00,  18.00,  18.00,  18.00,  18.00,  18.00,  18.00,  18.00,  18.00,  18.00,  18.00
! <Site:GroundTemperature:FCfactorMethod>,Jan{C},Feb{C},Mar{C},Apr{C},May{C},Jun{C},Jul{C},Aug{C},Sep{C},Oct{C},Nov{C},Dec{C}
 Site:GroundTemperature:FCfactorMethod,  16.00,  11.90,   7.70,   4.00,   7.90,  13.80,  17.20,  20.80,  24.80,  26.10,  26.50,  22.50
! <Site:GroundTemperature:Shallow>,Jan{C},Feb{C},Mar{C},Apr{C},May{C},Jun{C},Jul{C},Aug{C},Sep{C},Oct{C},Nov{C},Dec{C}
 Site:GroundTemperature:Shallow,  13.00,  13.00,  13.00,  13.00,  13.00,  13.00,  13.00,  13.00,  13.00,  13.00,  13.00,  13.00
! <Site:GroundTemperature:Deep>,Jan{C},Feb{C},Mar{C},Apr{C},May{C},Jun{C},Jul{C},Aug{C},Sep{C},Oct{C},Nov{C},Dec{C}
 Site:GroundTemperature:Deep,  16.00,  16.00,  16.00,  16.00,  16.00,  16.00,  16.00,  16.00,  16.00,  16.00,  16.00,  16.00
! <Site:GroundReflectance>,Jan{dimensionless},Feb{dimensionless},Mar{dimensionless},Apr{dimensionless},May{dimensionless},Jun{dimensionless},Jul{dimensionless},Aug{dimensionless},Sep{dimensionless},Oct{dimensionless},Nov{dimensionless},Dec{dimensionless}
 Site:GroundReflectance,  0.20,  0.20,  0.20,  0.20,  0.20,  0.20,  0.20,  0.20,  0.20,  0.20,  0.20,  0.20
! <Site:GroundReflectance:SnowModifier>, Normal, Daylighting {dimensionless}
 Site:GroundReflectance:SnowModifier,   1.000,   1.000
! <Site:GroundReflectance:Snow>,Jan{dimensionless},Feb{dimensionless},Mar{dimensionless},Apr{dimensionless},May{dimensionless},Jun{dimensionless},Jul{dimensionless},Aug{dimensionless},Sep{dimensionless},Oct{dimensionless},Nov{dimensionless},Dec{dimensionless}
 Site:GroundReflectance:Snow,  0.20,  0.20,  0.20,  0.20,  0.20,  0.20,  0.20,  0.20,  0.20,  0.20,  0.20,  0.20
! <Site:GroundReflectance:Snow:Daylighting>,Jan{dimensionless},Feb{dimensionless},Mar{dimensionless},Apr{dimensionless},May{dimensionless},Jun{dimensionless},Jul{dimensionless},Aug{dimensionless},Sep{dimensionless},Oct{dimensionless},Nov{dimensionless},Dec{dimensionless}
 Site:GroundReflectance:Snow:Daylighting,  0.20,  0.20,  0.20,  0.20,  0.20,  0.20,  0.20,  0.20,  0.20,  0.20,  0.20,  0.20
! <Environment:Weather Station>,Wind Sensor Height Above Ground {m},Wind Speed Profile Exponent {},Wind Speed Profile Boundary Layer Thickness {m},Air Temperature Sensor Height Above Ground {m},Wind Speed Modifier Coefficient-Internal,Temperature Modifier Coefficient-Internal
Environment:Weather Station,10.000,0.140,270.000,1.500,1.586,9.750E-003
! <Site:Location>, Location Name, Latitude {N+/S- Deg}, Longitude {E+/W- Deg},  Time Zone Number {GMT+/-}, Elevation {m},  Standard Pressure at Elevation {Pa}, Standard RhoAir at Elevation
Site:Location,Atlanta-Hartsfield Jackson Intl AP GA USA TMY3 WMO#=722190,33.63,-84.43,-5.00,308.00,97679,1.1610
! <Site Water Mains Temperature Information>,Calculation Method{},Water Mains Temperature Schedule Name{},Annual Average Outdoor Air Temperature{C},Maximum Difference In Monthly Average Outdoor Air Temperatures{deltaC},Fixed Default Water Mains Temperature{C}
Site Water Mains Temperature Information,Correlation,NA,16.60,22.50,NA
! <Building Information>, Building Name,North Axis {deg},Terrain,  Loads Convergence Tolerance Value,Temperature Convergence Tolerance Value,  Solar Distribution,Maximum Number of Warmup Days,Minimum Number of Warmup Days
 Building Information,ApartmentHighRise,0.000,City,4.00000E-002,0.20000,FullInteriorAndExterior,25,6
! <Inside Convection Algorithm>, Algorithm {Simple | TARP | CeilingDiffuser | AdaptiveConvectionAlgorithm}
Inside Convection Algorithm,TARP
! <Outside Convection Algorithm>, Algorithm {SimpleCombined | TARP | MoWitt | DOE-2 | AdaptiveConvectionAlgorithm}
Outside Convection Algorithm,DOE-2
! <Sky Radiance Distribution>, Value {Anisotropic}
Sky Radiance Distribution,Anisotropic
! <Zone Air Solution Algorithm>, Value {ThirdOrderBackwardDifference | AnalyticalSolution | EulerMethod}
 Zone Air Solution Algorithm, ThirdOrderBackwardDifference
! <Zone Air Carbon Dioxide Balance Simulation>, Simulation {Yes/No}, Carbon Dioxide Concentration
 Zone Air Carbon Dioxide Balance Simulation, No,N/A
! <Zone Air Generic Contaminant Balance Simulation>, Simulation {Yes/No}, Generic Contaminant Concentration
 Zone Air Generic Contaminant Balance Simulation, No,N/A
! <Zone Air Mass Flow Balance Simulation>, Enforce Mass Balance, Adjust Zone Mixing, Adjust Zone Infiltration {AddInfiltration | AdjustInfiltration | None}, Infiltration Zones {MixingSourceZonesOnly | AllZones}
 Zone Air Mass Flow Balance Simulation, No,N/A,N/A,N/A
! <HVACSystemRootFindingAlgorithm>, Value {RegulaFalsi | Bisection | BisectionThenRegulaFalsi | RegulaFalsiThenBisection}
 HVACSystemRootFindingAlgorithm, RegulaFalsi
! <Environment:Site Atmospheric Variation>,Wind Speed Profile Exponent {},Wind Speed Profile Boundary Layer Thickness {m},Air Temperature Gradient Coefficient {K/m}
Environment:Site Atmospheric Variation,0.330,460.000,6.500000E-003
! <Surface Geometry>,Starting Corner,Vertex Input Direction,Coordinate System,Daylight Reference Point Coordinate System,Rectangular (Simple) Surface Coordinate System
 Surface Geometry,UpperLeftCorner,Counterclockwise,RelativeCoordinateSystem,RelativeCoordinateSystem,RelativeToZoneOrigin
! <Surface Heat Transfer Algorithm>, Value {CTF - ConductionTransferFunction | EMPD - MoisturePenetrationDepthConductionTransferFunction | CondFD - ConductionFiniteDifference | HAMT - CombinedHeatAndMoistureFiniteElement} - Description,Inside Surface Max Temperature Limit{C}, Surface Convection Coefficient Lower Limit {W/m2-K}, Surface Convection Coefficient Upper Limit {W/m2-K}
Surface Heat Transfer Algorithm, CTF - ConductionTransferFunction,200,0.10,1000.0
! <Shading Summary>, Number of Fixed Detached Shades, Number of Building Detached Shades, Number of Attached Shades
 Shading Summary,0,0,0
! <Zone Summary>, Number of Zones, Number of Zone Surfaces, Number of SubSurfaces
 Zone Summary,90,820,140
! <Zone Information>,Zone Name,North Axis {deg},Origin X-Coordinate {m},Origin Y-Coordinate {m},Origin Z-Coordinate {m},Centroid X-Coordinate {m},Centroid Y-Coordinate {m},Centroid Z-Coordinate {m},Type,Zone Multiplier,Zone List Multiplier,Minimum X {m},Maximum X {m},Minimum Y {m},Maximum Y {m},Minimum Z {m},Maximum Z {m},Ceiling Height {m},Volume {m3},Zone Inside Convection Algorithm {Simple-Detailed-CeilingDiffuser-TrombeWall},Zone Outside Convection Algorithm {Simple-Detailed-Tarp-MoWitt-DOE-2-BLAST}, Floor Area {m2},Exterior Gross Wall Area {m2},Exterior Net Wall Area {m2},Exterior Window Area {m2}, Number of Surfaces, Number of SubSurfaces, Number of Shading SubSurfaces,  Part of Total Building Area
 Zone Information, F2 CORRIDOR,0.0,0.00,7.62,3.05,23.16,8.46,4.57,1,1,1,0.00,46.33,7.62,9.30,3.05,6.10,3.05,236.69,TARP,DOE-2,77.66,10.22,7.99,2.23,12,2,0,Yes
 Zone Information, F2 N1 APARTMENT,0.0,11.58,9.30,3.05,17.37,13.11,4.57,1,1,1,11.58,23.16,9.30,16.92,3.05,6.10,3.05,268.96,TARP,DOE-2,88.25,35.30,24.71,10.59,6,1,0,Yes
 Zone Information, F2 N2 APARTMENT,0.0,23.16,9.30,3.05,28.95,13.11,4.57,1,1,1,23.16,34.75,9.30,16.92,3.05,6.10,3.05,268.97,TARP,DOE-2,88.25,35.30,24.71,10.59,6,1,0,Yes
 Zone Information, F2 NE APARTMENT,0.0,34.75,9.30,3.05,40.54,13.11,4.57,1,1,1,34.75,46.33,9.30,16.92,3.05,6.10,3.05,268.96,TARP,DOE-2,88.25,58.52,40.97,17.56,6,2,0,Yes
 Zone Information, F2 NW APARTMENT,0.0,0.00,9.30,3.05,5.79,13.11,4.57,1,1,1,0.00,11.58,9.30,16.92,3.05,6.10,3.05,268.96,TARP,DOE-2,88.25,58.52,40.97,17.56,6,2,0,Yes
 Zone Information, F2 S1 APARTMENT,0.0,11.58,0.00,3.05,17.37,3.81,4.57,1,1,1,11.58,23.16,0.00,7.62,3.05,6.10,3.05,268.96,TARP,DOE-2,88.25,35.30,24.71,10.59,6,1,0,Yes
 Zone Information, F2 S2 APARTMENT,0.0,23.16,0.00,3.05,28.95,3.81,4.57,1,1,1,23.16,34.75,0.00,7.62,3.05,6.10,3.05,268.97,TARP,DOE-2,88.25,35.30,24.71,10.59,6,1,0,Yes
 Zone Information, F2 SE APARTMENT,0.0,34.75,0.00,3.05,40.54,3.81,4.57,1,1,1,34.75,46.33,0.00,7.62,3.05,6.10,3.05,268.96,TARP,DOE-2,88.25,58.52,40.97,17.56,6,2,0,Yes
 Zone Information, F2 SW APARTMENT,0.0,0.00,0.00,3.05,5.79,3.81,4.57,1,1,1,0.00,11.58,0.00,7.62,3.05,6.10,3.05,268.96,TARP,DOE-2,88.25,58.52,40.97,17.56,6,2,0,Yes
 Zone Information, F3 CORRIDOR,0.0,0.00,7.62,6.10,23.16,8.46,7.62,1,1,1,0.00,46.33,7.62,9.30,6.10,9.14,3.05,236.69,TARP,DOE-2,77.66,10.22,7.99,2.23,12,2,0,Yes
 Zone Information, F3 N1 APARTMENT,0.0,11.58,9.30,6.10,17.37,13.11,7.62,1,1,1,11.58,23.16,9.30,16.92,6.10,9.14,3.05,268.96,TARP,DOE-2,88.25,35.30,24.71,10.59,6,1,0,Yes
 Zone Information, F3 N2 APARTMENT,0.0,23.16,9.30,6.10,28.95,13.11,7.62,1,1,1,23.16,34.75,9.30,16.92,6.10,9.14,3.05,268.97,TARP,DOE-2,88.25,35.30,24.71,10.59,6,1,0,Yes
 Zone Information, F3 NE APARTMENT,0.0,34.75,9.30,6.10,40.54,13.11,7.62,1,1,1,34.75,46.33,9.30,16.92,6.10,9.14,3.05,268.96,TARP,DOE-2,88.25,58.52,40.97,17.56,6,2,0,Yes
 Zone Information, F3 NW APARTMENT,0.0,0.00,9.30,6.10,5.79,13.11,7.62,1,1,1,0.00,11.58,9.30,16.92,6.10,9.14,3.05,268.96,TARP,DOE-2,88.25,58.52,40.97,17.56,6,2,0,Yes
 Zone Information, F3 S1 APARTMENT,0.0,11.58,0.00,6.10,17.37,3.81,7.62,1,1,1,11.58,23.16,0.00,7.62,6.10,9.14,3.05,268.96,TARP,DOE-2,88.25,35.30,24.71,10.59,6,1,0,Yes
 Zone Information, F3 S2 APARTMENT,0.0,23.16,0.00,6.10,28.95,3.81,7.62,1,1,1,23.16,34.75,0.00,7.62,6.10,9.14,3.05,268.97,TARP,DOE-2,88.25,35.30,24.71,10.59,6,1,0,Yes
 Zone Information, F3 SE APARTMENT,0.0,34.75,0.00,6.10,40.54,3.81,7.62,1,1,1,34.75,46.33,0.00,7.62,6.10,9.14,3.05,268.96,TARP,DOE-2,88.25,58.52,40.97,17.56,6,2,0,Yes
 Zone Information, F3 SW APARTMENT,0.0,0.00,0.00,6.10,5.79,3.81,7.62,1,1,1,0.00,11.58,0.00,7.62,6.10,9.14,3.05,268.96,TARP,DOE-2,88.25,58.52,40.97,17.56,6,2,0,Yes
 Zone Information, F4 CORRIDOR,0.0,0.00,7.62,9.14,23.16,8.46,10.67,1,1,1,0.00,46.33,7.62,9.30,9.14,12.19,3.05,236.69,TARP,DOE-2,77.66,10.22,7.99,2.23,12,2,0,Yes
 Zone Information, F4 N1 APARTMENT,0.0,11.58,9.30,9.14,17.37,13.11,10.67,1,1,1,11.58,23.16,9.30,16.92,9.14,12.19,3.05,268.96,TARP,DOE-2,88.25,35.30,24.71,10.59,6,1,0,Yes
 Zone Information, F4 N2 APARTMENT,0.0,23.16,9.30,9.14,28.95,13.11,10.67,1,1,1,23.16,34.75,9.30,16.92,9.14,12.19,3.05,268.97,TARP,DOE-2,88.25,35.30,24.71,10.59,6,1,0,Yes
 Zone Information, F4 NE APARTMENT,0.0,34.75,9.30,9.14,40.54,13.11,10.67,1,1,1,34.75,46.33,9.30,16.92,9.14,12.19,3.05,268.96,TARP,DOE-2,88.25,58.52,40.97,17.56,6,2,0,Yes
 Zone Information, F4 NW APARTMENT,0.0,0.00,9.30,9.14,5.79,13.11,10.67,1,1,1,0.00,11.58,9.30,16.92,9.14,12.19,3.05,268.96,TARP,DOE-2,88.25,58.52,40.97,17.56,6,2,0,Yes
 Zone Information, F4 S1 APARTMENT,0.0,11.58,0.00,9.14,17.37,3.81,10.67,1,1,1,11.58,23.16,0.00,7.62,9.14,12.19,3.05,268.96,TARP,DOE-2,88.25,35.30,24.71,10.59,6,1,0,Yes
 Zone Information, F4 S2 APARTMENT,0.0,23.16,0.00,9.14,28.95,3.81,10.67,1,1,1,23.16,34.75,0.00,7.62,9.14,12.19,3.05,268.97,TARP,DOE-2,88.25,35.30,24.71,10.59,6,1,0,Yes
 Zone Information, F4 SE APARTMENT,0.0,34.75,0.00,9.14,40.54,3.81,10.67,1,1,1,34.75,46.33,0.00,7.62,9.14,12.19,3.05,268.96,TARP,DOE-2,88.25,58.52,40.97,17.56,6,2,0,Yes
 Zone Information, F4 SW APARTMENT,0.0,0.00,0.00,9.14,5.79,3.81,10.67,1,1,1,0.00,11.58,0.00,7.62,9.14,12.19,3.05,268.96,TARP,DOE-2,88.25,58.52,40.97,17.56,6,2,0,Yes
 Zone Information, F6 CORRIDOR,0.0,0.00,7.62,15.24,23.16,8.46,16.76,1,1,1,0.00,46.33,7.62,9.30,15.24,18.29,3.05,236.69,TARP,DOE-2,77.66,10.22,7.99,2.23,12,2,0,Yes
 Zone Information, F6 N1 APARTMENT,0.0,11.58,9.30,15.24,17.37,13.11,16.76,1,1,1,11.58,23.16,9.30,16.92,15.24,18.29,3.05,268.96,TARP,DOE-2,88.25,35.30,24.71,10.59,6,1,0,Yes
 Zone Information, F6 N2 APARTMENT,0.0,23.16,9.30,15.24,28.95,13.11,16.76,1,1,1,23.16,34.75,9.30,16.92,15.24,18.29,3.05,268.97,TARP,DOE-2,88.25,35.30,24.71,10.59,6,1,0,Yes
 Zone Information, F6 NE APARTMENT,0.0,34.75,9.30,15.24,40.54,13.11,16.76,1,1,1,34.75,46.33,9.30,16.92,15.24,18.29,3.05,268.96,TARP,DOE-2,88.25,58.52,40.97,17.56,6,2,0,Yes
 Zone Information, F6 NW APARTMENT,0.0,0.00,9.30,15.24,5.79,13.11,16.76,1,1,1,0.00,11.58,9.30,16.92,15.24,18.29,3.05,268.96,TARP,DOE-2,88.25,58.52,40.97,17.56,6,2,0,Yes
 Zone Information, F6 S1 APARTMENT,0.0,11.58,0.00,15.24,17.37,3.81,16.76,1,1,1,11.58,23.16,0.00,7.62,15.24,18.29,3.05,268.96,TARP,DOE-2,88.25,35.30,24.71,10.59,6,1,0,Yes
 Zone Information, F6 S2 APARTMENT,0.0,23.16,0.00,15.24,28.95,3.81,16.76,1,1,1,23.16,34.75,0.00,7.62,15.24,18.29,3.05,268.97,TARP,DOE-2,88.25,35.30,24.71,10.59,6,1,0,Yes
 Zone Information, F6 SE APARTMENT,0.0,34.75,0.00,15.24,40.54,3.81,16.76,1,1,1,34.75,46.33,0.00,7.62,15.24,18.29,3.05,268.96,TARP,DOE-2,88.25,58.52,40.97,17.56,6,2,0,Yes
 Zone Information, F6 SW APARTMENT,0.0,0.00,0.00,15.24,5.79,3.81,16.76,1,1,1,0.00,11.58,0.00,7.62,15.24,18.29,3.05,268.96,TARP,DOE-2,88.25,58.52,40.97,17.56,6,2,0,Yes
 Zone Information, F7 CORRIDOR,0.0,0.00,7.62,18.29,23.16,8.46,19.81,1,1,1,0.00,46.33,7.62,9.30,18.29,21.33,3.05,236.69,TARP,DOE-2,77.66,10.22,7.99,2.23,12,2,0,Yes
 Zone Information, F7 N1 APARTMENT,0.0,11.58,9.30,18.29,17.37,13.11,19.81,1,1,1,11.58,23.16,9.30,16.92,18.29,21.33,3.05,268.96,TARP,DOE-2,88.25,35.30,24.71,10.59,6,1,0,Yes
 Zone Information, F7 N2 APARTMENT,0.0,23.16,9.30,18.29,28.95,13.11,19.81,1,1,1,23.16,34.75,9.30,16.92,18.29,21.33,3.05,268.97,TARP,DOE-2,88.25,35.30,24.71,10.59,6,1,0,Yes
 Zone Information, F7 NE APARTMENT,0.0,34.75,9.30,18.29,40.54,13.11,19.81,1,1,1,34.75,46.33,9.30,16.92,18.29,21.33,3.05,268.96,TARP,DOE-2,88.25,58.52,40.97,17.56,6,2,0,Yes
 Zone Information, F7 NW APARTMENT,0.0,0.00,9.30,18.29,5.79,13.11,19.81,1,1,1,0.00,11.58,9.30,16.92,18.29,21.33,3.05,268.96,TARP,DOE-2,88.25,58.52,40.97,17.56,6,2,0,Yes
 Zone Information, F7 S1 APARTMENT,0.0,11.58,0.00,18.29,17.37,3.81,19.81,1,1,1,11.58,23.16,0.00,7.62,18.29,21.33,3.05,268.96,TARP,DOE-2,88.25,35.30,24.71,10.59,6,1,0,Yes
 Zone Information, F7 S2 APARTMENT,0.0,23.16,0.00,18.29,28.95,3.81,19.81,1,1,1,23.16,34.75,0.00,7.62,18.29,21.33,3.05,268.97,TARP,DOE-2,88.25,35.30,24.71,10.59,6,1,0,Yes
 Zone Information, F7 SE APARTMENT,0.0,34.75,0.00,18.29,40.54,3.81,19.81,1,1,1,34.75,46.33,0.00,7.62,18.29,21.33,3.05,268.96,TARP,DOE-2,88.25,58.52,40.97,17.56,6,2,0,Yes
 Zone Information, F7 SW APARTMENT,0.0,0.00,0.00,18.29,5.79,3.81,19.81,1,1,1,0.00,11.58,0.00,7.62,18.29,21.33,3.05,268.96,TARP,DOE-2,88.25,58.52,40.97,17.56,6,2,0,Yes
 Zone Information, F8 CORRIDOR,0.0,0.00,7.62,21.33,23.16,8.46,22.86,1,1,1,0.00,46.33,7.62,9.30,21.33,24.38,3.05,236.69,TARP,DOE-2,77.66,10.22,7.99,2.23,12,2,0,Yes
 Zone Information, F8 N1 APARTMENT,0.0,11.58,9.30,21.33,17.37,13.11,22.86,1,1,1,11.58,23.16,9.30,16.92,21.33,24.38,3.05,268.96,TARP,DOE-2,88.25,35.30,24.71,10.59,6,1,0,Yes
 Zone Information, F8 N2 APARTMENT,0.0,23.16,9.30,21.33,28.95,13.11,22.86,1,1,1,23.16,34.75,9.30,16.92,21.33,24.38,3.05,268.97,TARP,DOE-2,88.25,35.30,24.71,10.59,6,1,0,Yes
 Zone Information, F8 NE APARTMENT,0.0,34.75,9.30,21.33,40.54,13.11,22.86,1,1,1,34.75,46.33,9.30,16.92,21.33,24.38,3.05,268.96,TARP,DOE-2,88.25,58.52,40.97,17.56,6,2,0,Yes
 Zone Information, F8 NW APARTMENT,0.0,0.00,9.30,21.33,5.79,13.11,22.86,1,1,1,0.00,11.58,9.30,16.92,21.33,24.38,3.05,268.96,TARP,DOE-2,88.25,58.52,40.97,17.56,6,2,0,Yes
 Zone Information, F8 S1 APARTMENT,0.0,11.58,0.00,21.33,17.37,3.81,22.86,1,1,1,11.58,23.16,0.00,7.62,21.33,24.38,3.05,268.96,TARP,DOE-2,88.25,35.30,24.71,10.59,6,1,0,Yes
 Zone Information, F8 S2 APARTMENT,0.0,23.16,0.00,21.33,28.95,3.81,22.86,1,1,1,23.16,34.75,0.00,7.62,21.33,24.38,3.05,268.97,TARP,DOE-2,88.25,35.30,24.71,10.59,6,1,0,Yes
 Zone Information, F8 SE APARTMENT,0.0,34.75,0.00,21.33,40.54,3.81,22.86,1,1,1,34.75,46.33,0.00,7.62,21.33,24.38,3.05,268.96,TARP,DOE-2,88.25,58.52,40.97,17.56,6,2,0,Yes
 Zone Information, F8 SW APARTMENT,0.0,0.00,0.00,21.33,5.79,3.81,22.86,1,1,1,0.00,11.58,0.00,7.62,21.33,24.38,3.05,268.96,TARP,DOE-2,88.25,58.52,40.97,17.56,6,2,0,Yes
 Zone Information, F9 CORRIDOR,0.0,0.00,7.62,24.38,23.16,8.46,25.91,1,1,1,0.00,46.33,7.62,9.30,24.38,27.43,3.05,236.69,TARP,DOE-2,77.66,10.22,7.99,2.23,12,2,0,Yes
 Zone Information, F9 N1 APARTMENT,0.0,11.58,9.30,24.38,17.37,13.11,25.91,1,1,1,11.58,23.16,9.30,16.92,24.38,27.43,3.05,268.96,TARP,DOE-2,88.25,35.30,24.71,10.59,6,1,0,Yes
 Zone Information, F9 N2 APARTMENT,0.0,23.16,9.30,24.38,28.95,13.11,25.91,1,1,1,23.16,34.75,9.30,16.92,24.38,27.43,3.05,268.97,TARP,DOE-2,88.25,35.30,24.71,10.59,6,1,0,Yes
 Zone Information, F9 NE APARTMENT,0.0,34.75,9.30,24.38,40.54,13.11,25.91,1,1,1,34.75,46.33,9.30,16.92,24.38,27.43,3.05,268.96,TARP,DOE-2,88.25,58.52,40.97,17.56,6,2,0,Yes
 Zone Information, F9 NW APARTMENT,0.0,0.00,9.30,24.38,5.79,13.11,25.91,1,1,1,0.00,11.58,9.30,16.92,24.38,27.43,3.05,268.96,TARP,DOE-2,88.25,58.52,40.97,17.56,6,2,0,Yes
 Zone Information, F9 S1 APARTMENT,0.0,11.58,0.00,24.38,17.37,3.81,25.91,1,1,1,11.58,23.16,0.00,7.62,24.38,27.43,3.05,268.96,TARP,DOE-2,88.25,35.30,24.71,10.59,6,1,0,Yes
 Zone Information, F9 S2 APARTMENT,0.0,23.16,0.00,24.38,28.95,3.81,25.91,1,1,1,23.16,34.75,0.00,7.62,24.38,27.43,3.05,268.97,TARP,DOE-2,88.25,35.30,24.71,10.59,6,1,0,Yes
 Zone Information, F9 SE APARTMENT,0.0,34.75,0.00,24.38,40.54,3.81,25.91,1,1,1,34.75,46.33,0.00,7.62,24.38,27.43,3.05,268.96,TARP,DOE-2,88.25,58.52,40.97,17.56,6,2,0,Yes
 Zone Information, F9 SW APARTMENT,0.0,0.00,0.00,24.38,5.79,3.81,25.91,1,1,1,0.00,11.58,0.00,7.62,24.38,27.43,3.05,268.96,TARP,DOE-2,88.25,58.52,40.97,17.56,6,2,0,Yes
 Zone Information, G CORRIDOR,0.0,0.00,7.62,0.00,23.16,8.46,1.52,1,1,1,0.00,46.33,7.62,9.30,0.00,3.05,3.05,236.69,TARP,DOE-2,77.66,10.22,5.74,4.47,12,2,0,Yes
 Zone Information, G N1 APARTMENT,0.0,11.58,9.30,0.00,17.37,13.11,1.52,1,1,1,11.58,23.16,9.30,16.92,0.00,3.05,3.05,268.96,TARP,DOE-2,88.25,35.30,24.71,10.59,6,1,0,Yes
 Zone Information, G N2 APARTMENT,0.0,23.16,9.30,0.00,28.95,13.11,1.52,1,1,1,23.16,34.75,9.30,16.92,0.00,3.05,3.05,268.97,TARP,DOE-2,88.25,35.30,24.71,10.59,6,1,0,Yes
 Zone Information, G NE APARTMENT,0.0,34.75,9.30,0.00,40.54,13.11,1.52,1,1,1,34.75,46.33,9.30,16.92,0.00,3.05,3.05,268.96,TARP,DOE-2,88.25,58.52,40.97,17.56,6,2,0,Yes
 Zone Information, G NW APARTMENT,0.0,0.00,9.30,0.00,5.79,13.11,1.52,1,1,1,0.00,11.58,9.30,16.92,0.00,3.05,3.05,268.96,TARP,DOE-2,88.25,58.52,40.97,17.56,6,2,0,Yes
 Zone Information, G S1 APARTMENT,0.0,11.58,0.00,0.00,17.37,3.81,1.52,1,1,1,11.58,23.16,0.00,7.62,0.00,3.05,3.05,268.96,TARP,DOE-2,88.25,35.30,24.71,10.59,6,1,0,Yes
 Zone Information, G S2 APARTMENT,0.0,23.16,0.00,0.00,28.95,3.81,1.52,1,1,1,23.16,34.75,0.00,7.62,0.00,3.05,3.05,268.97,TARP,DOE-2,88.25,35.30,24.71,10.59,6,1,0,Yes
 Zone Information, G SW APARTMENT,0.0,0.00,0.00,0.00,5.79,3.81,1.52,1,1,1,0.00,11.58,0.00,7.62,0.00,3.05,3.05,268.96,TARP,DOE-2,88.25,58.52,40.97,17.56,6,2,0,Yes
 Zone Information, M CORRIDOR,0.0,0.00,7.62,12.19,23.16,8.46,13.72,1,1,1,0.00,46.33,7.62,9.30,12.19,15.24,3.05,236.69,TARP,DOE-2,77.66,10.22,7.99,2.23,12,2,0,Yes
 Zone Information, M N1 APARTMENT,0.0,11.58,9.30,12.19,17.37,13.11,13.72,1,1,1,11.58,23.16,9.30,16.92,12.19,15.24,3.05,268.96,TARP,DOE-2,88.25,35.30,24.71,10.59,6,1,0,Yes
 Zone Information, M N2 APARTMENT,0.0,23.16,9.30,12.19,28.95,13.11,13.72,1,1,1,23.16,34.75,9.30,16.92,12.19,15.24,3.05,268.97,TARP,DOE-2,88.25,35.30,24.71,10.59,6,1,0,Yes
 Zone Information, M NE APARTMENT,0.0,34.75,9.30,12.19,40.54,13.11,13.72,1,1,1,34.75,46.33,9.30,16.92,12.19,15.24,3.05,268.96,TARP,DOE-2,88.25,58.52,40.97,17.56,6,2,0,Yes
 Zone Information, M NW APARTMENT,0.0,0.00,9.30,12.19,5.79,13.11,13.72,1,1,1,0.00,11.58,9.30,16.92,12.19,15.24,3.05,268.96,TARP,DOE-2,88.25,58.52,40.97,17.56,6,2,0,Yes
 Zone Information, M S1 APARTMENT,0.0,11.58,0.00,12.19,17.37,3.81,13.72,1,1,1,11.58,23.16,0.00,7.62,12.19,15.24,3.05,268.96,TARP,DOE-2,88.25,35.30,24.71,10.59,6,1,0,Yes
 Zone Information, M S2 APARTMENT,0.0,23.16,0.00,12.19,28.95,3.81,13.72,1,1,1,23.16,34.75,0.00,7.62,12.19,15.24,3.05,268.97,TARP,DOE-2,88.25,35.30,24.71,10.59,6,1,0,Yes
 Zone Information, M SE APARTMENT,0.0,34.75,0.00,12.19,40.54,3.81,13.72,1,1,1,34.75,46.33,0.00,7.62,12.19,15.24,3.05,268.96,TARP,DOE-2,88.25,58.52,40.97,17.56,6,2,0,Yes
 Zone Information, M SW APARTMENT,0.0,0.00,0.00,12.19,5.79,3.81,13.72,1,1,1,0.00,11.58,0.00,7.62,12.19,15.24,3.05,268.96,TARP,DOE-2,88.25,58.52,40.97,17.56,6,2,0,Yes
 Zone Information, OFFICE,0.0,34.75,0.00,0.00,40.54,3.81,1.52,1,1,1,34.75,46.33,0.00,7.62,0.00,3.05,3.05,268.96,TARP,DOE-2,88.25,58.52,40.97,17.56,6,2,0,Yes
 Zone Information, T CORRIDOR,0.0,0.00,7.62,27.43,23.16,8.46,28.95,1,1,1,0.00,46.33,7.62,9.30,27.43,30.48,3.05,236.69,TARP,DOE-2,77.66,10.22,7.99,2.23,12,2,0,Yes
 Zone Information, T N1 APARTMENT,0.0,11.58,9.30,27.43,17.37,13.11,28.95,1,1,1,11.58,23.16,9.30,16.92,27.43,30.48,3.05,268.96,TARP,DOE-2,88.25,35.30,24.71,10.59,6,1,0,Yes
 Zone Information, T N2 APARTMENT,0.0,23.16,9.30,27.43,28.95,13.11,28.95,1,1,1,23.16,34.75,9.30,16.92,27.43,30.48,3.05,268.97,TARP,DOE-2,88.25,35.30,24.71,10.59,6,1,0,Yes
 Zone Information, T NE APARTMENT,0.0,34.75,9.30,27.43,40.54,13.11,28.95,1,1,1,34.75,46.33,9.30,16.92,27.43,30.48,3.05,268.96,TARP,DOE-2,88.25,58.52,40.97,17.56,6,2,0,Yes
 Zone Information, T NW APARTMENT,0.0,0.00,9.30,27.43,5.79,13.11,28.95,1,1,1,0.00,11.58,9.30,16.92,27.43,30.48,3.05,268.96,TARP,DOE-2,88.25,58.52,40.97,17.56,6,2,0,Yes
 Zone Information, T S1 APARTMENT,0.0,11.58,0.00,27.43,17.37,3.81,28.95,1,1,1,11.58,23.16,0.00,7.62,27.43,30.48,3.05,268.96,TARP,DOE-2,88.25,35.30,24.71,10.59,6,1,0,Yes
 Zone Information, T S2 APARTMENT,0.0,23.16,0.00,27.43,28.95,3.81,28.95,1,1,1,23.16,34.75,0.00,7.62,27.43,30.48,3.05,268.97,TARP,DOE-2,88.25,35.30,24.71,10.59,6,1,0,Yes
 Zone Information, T SE APARTMENT,0.0,34.75,0.00,27.43,40.54,3.81,28.95,1,1,1,34.75,46.33,0.00,7.62,27.43,30.48,3.05,268.96,TARP,DOE-2,88.25,58.52,40.97,17.56,6,2,0,Yes
 Zone Information, T SW APARTMENT,0.0,0.00,0.00,27.43,5.79,3.81,28.95,1,1,1,0.00,11.58,0.00,7.62,27.43,30.48,3.05,268.96,TARP,DOE-2,88.25,58.52,40.97,17.56,6,2,0,Yes
! <Zone Internal Gains Nominal>,Zone Name, Floor Area {m2},# Occupants,Area per Occupant {m2/person},Occupant per Area {person/m2},Interior Lighting {W/m2},Electric Load {W/m2},Gas Load {W/m2},Other Load {W/m2},Hot Water Eq {W/m2},Steam Equipment {W/m2},Sum Loads per Area {W/m2},Outdoor Controlled Baseboard Heat
 Zone Internal Gains Nominal, F2 CORRIDOR,77.66,0.0,N/A,0.000,8.525,0.000,0.000,0.000,0.000,0.000,8.525,No
 Zone Internal Gains Nominal, F2 N1 APARTMENT,88.25,2.5,35.299,2.833E-002,14.424,6.670,0.000,0.000,0.000,0.000,21.094,No
 Zone Internal Gains Nominal, F2 N2 APARTMENT,88.25,2.5,35.299,2.833E-002,14.424,6.670,0.000,0.000,0.000,0.000,21.094,No
 Zone Internal Gains Nominal, F2 NE APARTMENT,88.25,2.5,35.299,2.833E-002,14.424,6.670,0.000,0.000,0.000,0.000,21.094,No
 Zone Internal Gains Nominal, F2 NW APARTMENT,88.25,2.5,35.299,2.833E-002,14.424,6.670,0.000,0.000,0.000,0.000,21.094,No
 Zone Internal Gains Nominal, F2 S1 APARTMENT,88.25,2.5,35.299,2.833E-002,14.424,6.670,0.000,0.000,0.000,0.000,21.094,No
 Zone Internal Gains Nominal, F2 S2 APARTMENT,88.25,2.5,35.299,2.833E-002,14.424,6.670,0.000,0.000,0.000,0.000,21.094,No
 Zone Internal Gains Nominal, F2 SE APARTMENT,88.25,2.5,35.299,2.833E-002,14.424,6.670,0.000,0.000,0.000,0.000,21.094,No
 Zone Internal Gains Nominal, F2 SW APARTMENT,88.25,2.5,35.299,2.833E-002,14.424,6.670,0.000,0.000,0.000,0.000,21.094,No
 Zone Internal Gains Nominal, F3 CORRIDOR,77.66,0.0,N/A,0.000,8.525,0.000,0.000,0.000,0.000,0.000,8.525,No
 Zone Internal Gains Nominal, F3 N1 APARTMENT,88.25,2.5,35.299,2.833E-002,14.424,6.670,0.000,0.000,0.000,0.000,21.094,No
 Zone Internal Gains Nominal, F3 N2 APARTMENT,88.25,2.5,35.299,2.833E-002,14.424,6.670,0.000,0.000,0.000,0.000,21.094,No
 Zone Internal Gains Nominal, F3 NE APARTMENT,88.25,2.5,35.299,2.833E-002,14.424,6.670,0.000,0.000,0.000,0.000,21.094,No
 Zone Internal Gains Nominal, F3 NW APARTMENT,88.25,2.5,35.299,2.833E-002,14.424,6.670,0.000,0.000,0.000,0.000,21.094,No
 Zone Internal Gains Nominal, F3 S1 APARTMENT,88.25,2.5,35.299,2.833E-002,14.424,6.670,0.000,0.000,0.000,0.000,21.094,No
 Zone Internal Gains Nominal, F3 S2 APARTMENT,88.25,2.5,35.299,2.833E-002,14.424,6.670,0.000,0.000,0.000,0.000,21.094,No
 Zone Internal Gains Nominal, F3 SE APARTMENT,88.25,2.5,35.299,2.833E-002,14.424,6.670,0.000,0.000,0.000,0.000,21.094,No
 Zone Internal Gains Nominal, F3 SW APARTMENT,88.25,2.5,35.299,2.833E-002,14.424,6.670,0.000,0.000,0.000,0.000,21.094,No
 Zone Internal Gains Nominal, F4 CORRIDOR,77.66,0.0,N/A,0.000,8.525,0.000,0.000,0.000,0.000,0.000,8.525,No
 Zone Internal Gains Nominal, F4 N1 APARTMENT,88.25,2.5,35.299,2.833E-002,14.424,6.670,0.000,0.000,0.000,0.000,21.094,No
 Zone Internal Gains Nominal, F4 N2 APARTMENT,88.25,2.5,35.299,2.833E-002,14.424,6.670,0.000,0.000,0.000,0.000,21.094,No
 Zone Internal Gains Nominal, F4 NE APARTMENT,88.25,2.5,35.299,2.833E-002,14.424,6.670,0.000,0.000,0.000,0.000,21.094,No
 Zone Internal Gains Nominal, F4 NW APARTMENT,88.25,2.5,35.299,2.833E-002,14.424,6.670,0.000,0.000,0.000,0.000,21.094,No
 Zone Internal Gains Nominal, F4 S1 APARTMENT,88.25,2.5,35.299,2.833E-002,14.424,6.670,0.000,0.000,0.000,0.000,21.094,No
 Zone Internal Gains Nominal, F4 S2 APARTMENT,88.25,2.5,35.299,2.833E-002,14.424,6.670,0.000,0.000,0.000,0.000,21.094,No
 Zone Internal Gains Nominal, F4 SE APARTMENT,88.25,2.5,35.299,2.833E-002,14.424,6.670,0.000,0.000,0.000,0.000,21.094,No
 Zone Internal Gains Nominal, F4 SW APARTMENT,88.25,2.5,35.299,2.833E-002,14.424,6.670,0.000,0.000,0.000,0.000,21.094,No
 Zone Internal Gains Nominal, F6 CORRIDOR,77.66,0.0,N/A,0.000,8.525,0.000,0.000,0.000,0.000,0.000,8.525,No
 Zone Internal Gains Nominal, F6 N1 APARTMENT,88.25,2.5,35.299,2.833E-002,14.424,6.670,0.000,0.000,0.000,0.000,21.094,No
 Zone Internal Gains Nominal, F6 N2 APARTMENT,88.25,2.5,35.299,2.833E-002,14.424,6.670,0.000,0.000,0.000,0.000,21.094,No
 Zone Internal Gains Nominal, F6 NE APARTMENT,88.25,2.5,35.299,2.833E-002,14.424,6.670,0.000,0.000,0.000,0.000,21.094,No
 Zone Internal Gains Nominal, F6 NW APARTMENT,88.25,2.5,35.299,2.833E-002,14.424,6.670,0.000,0.000,0.000,0.000,21.094,No
 Zone Internal Gains Nominal, F6 S1 APARTMENT,88.25,2.5,35.299,2.833E-002,14.424,6.670,0.000,0.000,0.000,0.000,21.094,No
 Zone Internal Gains Nominal, F6 S2 APARTMENT,88.25,2.5,35.299,2.833E-002,14.424,6.670,0.000,0.000,0.000,0.000,21.094,No
 Zone Internal Gains Nominal, F6 SE APARTMENT,88.25,2.5,35.299,2.833E-002,14.424,6.670,0.000,0.000,0.000,0.000,21.094,No
 Zone Internal Gains Nominal, F6 SW APARTMENT,88.25,2.5,35.299,2.833E-002,14.424,6.670,0.000,0.000,0.000,0.000,21.094,No
 Zone Internal Gains Nominal, F7 CORRIDOR,77.66,0.0,N/A,0.000,8.525,0.000,0.000,0.000,0.000,0.000,8.525,No
 Zone Internal Gains Nominal, F7 N1 APARTMENT,88.25,2.5,35.299,2.833E-002,14.424,6.670,0.000,0.000,0.000,0.000,21.094,No
 Zone Internal Gains Nominal, F7 N2 APARTMENT,88.25,2.5,35.299,2.833E-002,14.424,6.670,0.000,0.000,0.000,0.000,21.094,No
 Zone Internal Gains Nominal, F7 NE APARTMENT,88.25,2.5,35.299,2.833E-002,14.424,6.670,0.000,0.000,0.000,0.000,21.094,No
 Zone Internal Gains Nominal, F7 NW APARTMENT,88.25,2.5,35.299,2.833E-002,14.424,6.670,0.000,0.000,0.000,0.000,21.094,No
 Zone Internal Gains Nominal, F7 S1 APARTMENT,88.25,2.5,35.299,2.833E-002,14.424,6.670,0.000,0.000,0.000,0.000,21.094,No
 Zone Internal Gains Nominal, F7 S2 APARTMENT,88.25,2.5,35.299,2.833E-002,14.424,6.670,0.000,0.000,0.000,0.000,21.094,No
 Zone Internal Gains Nominal, F7 SE APARTMENT,88.25,2.5,35.299,2.833E-002,14.424,6.670,0.000,0.000,0.000,0.000,21.094,No
 Zone Internal Gains Nominal, F7 SW APARTMENT,88.25,2.5,35.299,2.833E-002,14.424,6.670,0.000,0.000,0.000,0.000,21.094,No
 Zone Internal Gains Nominal, F8 CORRIDOR,77.66,0.0,N/A,0.000,8.525,0.000,0.000,0.000,0.000,0.000,8.525,No
 Zone Internal Gains Nominal, F8 N1 APARTMENT,88.25,2.5,35.299,2.833E-002,14.424,6.670,0.000,0.000,0.000,0.000,21.094,No
 Zone Internal Gains Nominal, F8 N2 APARTMENT,88.25,2.5,35.299,2.833E-002,14.424,6.670,0.000,0.000,0.000,0.000,21.094,No
 Zone Internal Gains Nominal, F8 NE APARTMENT,88.25,2.5,35.299,2.833E-002,14.424,6.670,0.000,0.000,0.000,0.000,21.094,No
 Zone Internal Gains Nominal, F8 NW APARTMENT,88.25,2.5,35.299,2.833E-002,14.424,6.670,0.000,0.000,0.000,0.000,21.094,No
 Zone Internal Gains Nominal, F8 S1 APARTMENT,88.25,2.5,35.299,2.833E-002,14.424,6.670,0.000,0.000,0.000,0.000,21.094,No
 Zone Internal Gains Nominal, F8 S2 APARTMENT,88.25,2.5,35.299,2.833E-002,14.424,6.670,0.000,0.000,0.000,0.000,21.094,No
 Zone Internal Gains Nominal, F8 SE APARTMENT,88.25,2.5,35.299,2.833E-002,14.424,6.670,0.000,0.000,0.000,0.000,21.094,No
 Zone Internal Gains Nominal, F8 SW APARTMENT,88.25,2.5,35.299,2.833E-002,14.424,6.670,0.000,0.000,0.000,0.000,21.094,No
 Zone Internal Gains Nominal, F9 CORRIDOR,77.66,0.0,N/A,0.000,8.525,0.000,0.000,0.000,0.000,0.000,8.525,No
 Zone Internal Gains Nominal, F9 N1 APARTMENT,88.25,2.5,35.299,2.833E-002,14.424,6.670,0.000,0.000,0.000,0.000,21.094,No
 Zone Internal Gains Nominal, F9 N2 APARTMENT,88.25,2.5,35.299,2.833E-002,14.424,6.670,0.000,0.000,0.000,0.000,21.094,No
 Zone Internal Gains Nominal, F9 NE APARTMENT,88.25,2.5,35.299,2.833E-002,14.424,6.670,0.000,0.000,0.000,0.000,21.094,No
 Zone Internal Gains Nominal, F9 NW APARTMENT,88.25,2.5,35.299,2.833E-002,14.424,6.670,0.000,0.000,0.000,0.000,21.094,No
 Zone Internal Gains Nominal, F9 S1 APARTMENT,88.25,2.5,35.299,2.833E-002,14.424,6.670,0.000,0.000,0.000,0.000,21.094,No
 Zone Internal Gains Nominal, F9 S2 APARTMENT,88.25,2.5,35.299,2.833E-002,14.424,6.670,0.000,0.000,0.000,0.000,21.094,No
 Zone Internal Gains Nominal, F9 SE APARTMENT,88.25,2.5,35.299,2.833E-002,14.424,6.670,0.000,0.000,0.000,0.000,21.094,No
 Zone Internal Gains Nominal, F9 SW APARTMENT,88.25,2.5,35.299,2.833E-002,14.424,6.670,0.000,0.000,0.000,0.000,21.094,No
 Zone Internal Gains Nominal, G CORRIDOR,77.66,0.0,N/A,0.000,8.525,0.000,0.000,0.000,0.000,0.000,8.525,No
 Zone Internal Gains Nominal, G N1 APARTMENT,88.25,2.5,35.299,2.833E-002,14.424,6.670,0.000,0.000,0.000,0.000,21.094,No
 Zone Internal Gains Nominal, G N2 APARTMENT,88.25,2.5,35.299,2.833E-002,14.424,6.670,0.000,0.000,0.000,0.000,21.094,No
 Zone Internal Gains Nominal, G NE APARTMENT,88.25,2.5,35.299,2.833E-002,14.424,6.670,0.000,0.000,0.000,0.000,21.094,No
 Zone Internal Gains Nominal, G NW APARTMENT,88.25,2.5,35.299,2.833E-002,14.424,6.670,0.000,0.000,0.000,0.000,21.094,No
 Zone Internal Gains Nominal, G S1 APARTMENT,88.25,2.5,35.299,2.833E-002,14.424,6.670,0.000,0.000,0.000,0.000,21.094,No
 Zone Internal Gains Nominal, G S2 APARTMENT,88.25,2.5,35.299,2.833E-002,14.424,6.670,0.000,0.000,0.000,0.000,21.094,No
 Zone Internal Gains Nominal, G SW APARTMENT,88.25,2.5,35.299,2.833E-002,14.424,6.670,0.000,0.000,0.000,0.000,21.094,No
 Zone Internal Gains Nominal, M CORRIDOR,77.66,0.0,N/A,0.000,8.525,0.000,0.000,0.000,0.000,0.000,8.525,No
 Zone Internal Gains Nominal, M N1 APARTMENT,88.25,2.5,35.299,2.833E-002,14.424,6.670,0.000,0.000,0.000,0.000,21.094,No
 Zone Internal Gains Nominal, M N2 APARTMENT,88.25,2.5,35.299,2.833E-002,14.424,6.670,0.000,0.000,0.000,0.000,21.094,No
 Zone Internal Gains Nominal, M NE APARTMENT,88.25,2.5,35.299,2.833E-002,14.424,6.670,0.000,0.000,0.000,0.000,21.094,No
 Zone Internal Gains Nominal, M NW APARTMENT,88.25,2.5,35.299,2.833E-002,14.424,6.670,0.000,0.000,0.000,0.000,21.094,No
 Zone Internal Gains Nominal, M S1 APARTMENT,88.25,2.5,35.299,2.833E-002,14.424,6.670,0.000,0.000,0.000,0.000,21.094,No
 Zone Internal Gains Nominal, M S2 APARTMENT,88.25,2.5,35.299,2.833E-002,14.424,6.670,0.000,0.000,0.000,0.000,21.094,No
 Zone Internal Gains Nominal, M SE APARTMENT,88.25,2.5,35.299,2.833E-002,14.424,6.670,0.000,0.000,0.000,0.000,21.094,No
 Zone Internal Gains Nominal, M SW APARTMENT,88.25,2.5,35.299,2.833E-002,14.424,6.670,0.000,0.000,0.000,0.000,21.094,No
 Zone Internal Gains Nominal, OFFICE,88.25,1.0,88.249,1.133E-002,11.948,6.670,0.000,0.000,0.000,0.000,18.618,No
 Zone Internal Gains Nominal, T CORRIDOR,77.66,0.0,N/A,0.000,8.525,263.114,0.000,0.000,0.000,0.000,271.639,No
 Zone Internal Gains Nominal, T N1 APARTMENT,88.25,2.5,35.299,2.833E-002,14.424,6.670,0.000,0.000,0.000,0.000,21.094,No
 Zone Internal Gains Nominal, T N2 APARTMENT,88.25,2.5,35.299,2.833E-002,14.424,6.670,0.000,0.000,0.000,0.000,21.094,No
 Zone Internal Gains Nominal, T NE APARTMENT,88.25,2.5,35.299,2.833E-002,14.424,6.670,0.000,0.000,0.000,0.000,21.094,No
 Zone Internal Gains Nominal, T NW APARTMENT,88.25,2.5,35.299,2.833E-002,14.424,6.670,0.000,0.000,0.000,0.000,21.094,No
 Zone Internal Gains Nominal, T S1 APARTMENT,88.25,2.5,35.299,2.833E-002,14.424,6.670,0.000,0.000,0.000,0.000,21.094,No
 Zone Internal Gains Nominal, T S2 APARTMENT,88.25,2.5,35.299,2.833E-002,14.424,6.670,0.000,0.000,0.000,0.000,21.094,No
 Zone Internal Gains Nominal, T SE APARTMENT,88.25,2.5,35.299,2.833E-002,14.424,6.670,0.000,0.000,0.000,0.000,21.094,No
 Zone Internal Gains Nominal, T SW APARTMENT,88.25,2.5,35.299,2.833E-002,14.424,6.670,0.000,0.000,0.000,0.000,21.094,No
! <People Internal Gains Nominal>,Name,Schedule Name,Zone Name,Zone Floor Area {m2},# Zone Occupants,Number of People {},People/Floor Area {person/m2},Floor Area per person {m2/person},Fraction Radiant,Fraction Convected,Sensible Fraction Calculation,Activity level,ASHRAE 55 Warnings,Carbon Dioxide Generation Rate,Nominal Minimum Number of People,Nominal Maximum Number of People
 People Internal Gains Nominal, F2 N1 APARTMENT PEOPLE,OCC_APT_SCH,F2 N1 APARTMENT,88.25,2.5,2.5,2.833E-002,35.299,0.300,0.700,AutoCalculate,ACTIVITY SCHEDULE,No,3.8200E-008,1,3
 People Internal Gains Nominal, F2 N2 APARTMENT PEOPLE,OCC_APT_SCH,F2 N2 APARTMENT,88.25,2.5,2.5,2.833E-002,35.299,0.300,0.700,AutoCalculate,ACTIVITY SCHEDULE,No,3.8200E-008,1,3
 People Internal Gains Nominal, F2 NE APARTMENT PEOPLE,OCC_APT_SCH,F2 NE APARTMENT,88.25,2.5,2.5,2.833E-002,35.299,0.300,0.700,AutoCalculate,ACTIVITY SCHEDULE,No,3.8200E-008,1,3
 People Internal Gains Nominal, F2 NW APARTMENT PEOPLE,OCC_APT_SCH,F2 NW APARTMENT,88.25,2.5,2.5,2.833E-002,35.299,0.300,0.700,AutoCalculate,ACTIVITY SCHEDULE,No,3.8200E-008,1,3
 People Internal Gains Nominal, F2 S1 APARTMENT PEOPLE,OCC_APT_SCH,F2 S1 APARTMENT,88.25,2.5,2.5,2.833E-002,35.299,0.300,0.700,AutoCalculate,ACTIVITY SCHEDULE,No,3.8200E-008,1,3
 People Internal Gains Nominal, F2 S2 APARTMENT PEOPLE,OCC_APT_SCH,F2 S2 APARTMENT,88.25,2.5,2.5,2.833E-002,35.299,0.300,0.700,AutoCalculate,ACTIVITY SCHEDULE,No,3.8200E-008,1,3
 People Internal Gains Nominal, F2 SE APARTMENT PEOPLE,OCC_APT_SCH,F2 SE APARTMENT,88.25,2.5,2.5,2.833E-002,35.299,0.300,0.700,AutoCalculate,ACTIVITY SCHEDULE,No,3.8200E-008,1,3
 People Internal Gains Nominal, F2 SW APARTMENT PEOPLE,OCC_APT_SCH,F2 SW APARTMENT,88.25,2.5,2.5,2.833E-002,35.299,0.300,0.700,AutoCalculate,ACTIVITY SCHEDULE,No,3.8200E-008,1,3
 People Internal Gains Nominal, F3 N1 APARTMENT PEOPLE,OCC_APT_SCH,F3 N1 APARTMENT,88.25,2.5,2.5,2.833E-002,35.299,0.300,0.700,AutoCalculate,ACTIVITY SCHEDULE,No,3.8200E-008,1,3
 People Internal Gains Nominal, F3 N2 APARTMENT PEOPLE,OCC_APT_SCH,F3 N2 APARTMENT,88.25,2.5,2.5,2.833E-002,35.299,0.300,0.700,AutoCalculate,ACTIVITY SCHEDULE,No,3.8200E-008,1,3
 People Internal Gains Nominal, F3 NE APARTMENT PEOPLE,OCC_APT_SCH,F3 NE APARTMENT,88.25,2.5,2.5,2.833E-002,35.299,0.300,0.700,AutoCalculate,ACTIVITY SCHEDULE,No,3.8200E-008,1,3
 People Internal Gains Nominal, F3 NW APARTMENT PEOPLE,OCC_APT_SCH,F3 NW APARTMENT,88.25,2.5,2.5,2.833E-002,35.299,0.300,0.700,AutoCalculate,ACTIVITY SCHEDULE,No,3.8200E-008,1,3
 People Internal Gains Nominal, F3 S1 APARTMENT PEOPLE,OCC_APT_SCH,F3 S1 APARTMENT,88.25,2.5,2.5,2.833E-002,35.299,0.300,0.700,AutoCalculate,ACTIVITY SCHEDULE,No,3.8200E-008,1,3
 People Internal Gains Nominal, F3 S2 APARTMENT PEOPLE,OCC_APT_SCH,F3 S2 APARTMENT,88.25,2.5,2.5,2.833E-002,35.299,0.300,0.700,AutoCalculate,ACTIVITY SCHEDULE,No,3.8200E-008,1,3
 People Internal Gains Nominal, F3 SE APARTMENT PEOPLE,OCC_APT_SCH,F3 SE APARTMENT,88.25,2.5,2.5,2.833E-002,35.299,0.300,0.700,AutoCalculate,ACTIVITY SCHEDULE,No,3.8200E-008,1,3
 People Internal Gains Nominal, F3 SW APARTMENT PEOPLE,OCC_APT_SCH,F3 SW APARTMENT,88.25,2.5,2.5,2.833E-002,35.299,0.300,0.700,AutoCalculate,ACTIVITY SCHEDULE,No,3.8200E-008,1,3
 People Internal Gains Nominal, F4 N1 APARTMENT PEOPLE,OCC_APT_SCH,F4 N1 APARTMENT,88.25,2.5,2.5,2.833E-002,35.299,0.300,0.700,AutoCalculate,ACTIVITY SCHEDULE,No,3.8200E-008,1,3
 People Internal Gains Nominal, F4 N2 APARTMENT PEOPLE,OCC_APT_SCH,F4 N2 APARTMENT,88.25,2.5,2.5,2.833E-002,35.299,0.300,0.700,AutoCalculate,ACTIVITY SCHEDULE,No,3.8200E-008,1,3
 People Internal Gains Nominal, F4 NE APARTMENT PEOPLE,OCC_APT_SCH,F4 NE APARTMENT,88.25,2.5,2.5,2.833E-002,35.299,0.300,0.700,AutoCalculate,ACTIVITY SCHEDULE,No,3.8200E-008,1,3
 People Internal Gains Nominal, F4 NW APARTMENT PEOPLE,OCC_APT_SCH,F4 NW APARTMENT,88.25,2.5,2.5,2.833E-002,35.299,0.300,0.700,AutoCalculate,ACTIVITY SCHEDULE,No,3.8200E-008,1,3
 People Internal Gains Nominal, F4 S1 APARTMENT PEOPLE,OCC_APT_SCH,F4 S1 APARTMENT,88.25,2.5,2.5,2.833E-002,35.299,0.300,0.700,AutoCalculate,ACTIVITY SCHEDULE,No,3.8200E-008,1,3
 People Internal Gains Nominal, F4 S2 APARTMENT PEOPLE,OCC_APT_SCH,F4 S2 APARTMENT,88.25,2.5,2.5,2.833E-002,35.299,0.300,0.700,AutoCalculate,ACTIVITY SCHEDULE,No,3.8200E-008,1,3
 People Internal Gains Nominal, F4 SE APARTMENT PEOPLE,OCC_APT_SCH,F4 SE APARTMENT,88.25,2.5,2.5,2.833E-002,35.299,0.300,0.700,AutoCalculate,ACTIVITY SCHEDULE,No,3.8200E-008,1,3
 People Internal Gains Nominal, F4 SW APARTMENT PEOPLE,OCC_APT_SCH,F4 SW APARTMENT,88.25,2.5,2.5,2.833E-002,35.299,0.300,0.700,AutoCalculate,ACTIVITY SCHEDULE,No,3.8200E-008,1,3
 People Internal Gains Nominal, F6 N1 APARTMENT PEOPLE,OCC_APT_SCH,F6 N1 APARTMENT,88.25,2.5,2.5,2.833E-002,35.299,0.300,0.700,AutoCalculate,ACTIVITY SCHEDULE,No,3.8200E-008,1,3
 People Internal Gains Nominal, F6 N2 APARTMENT PEOPLE,OCC_APT_SCH,F6 N2 APARTMENT,88.25,2.5,2.5,2.833E-002,35.299,0.300,0.700,AutoCalculate,ACTIVITY SCHEDULE,No,3.8200E-008,1,3
 People Internal Gains Nominal, F6 NE APARTMENT PEOPLE,OCC_APT_SCH,F6 NE APARTMENT,88.25,2.5,2.5,2.833E-002,35.299,0.300,0.700,AutoCalculate,ACTIVITY SCHEDULE,No,3.8200E-008,1,3
 People Internal Gains Nominal, F6 NW APARTMENT PEOPLE,OCC_APT_SCH,F6 NW APARTMENT,88.25,2.5,2.5,2.833E-002,35.299,0.300,0.700,AutoCalculate,ACTIVITY SCHEDULE,No,3.8200E-008,1,3
 People Internal Gains Nominal, F6 S1 APARTMENT PEOPLE,OCC_APT_SCH,F6 S1 APARTMENT,88.25,2.5,2.5,2.833E-002,35.299,0.300,0.700,AutoCalculate,ACTIVITY SCHEDULE,No,3.8200E-008,1,3
 People Internal Gains Nominal, F6 S2 APARTMENT PEOPLE,OCC_APT_SCH,F6 S2 APARTMENT,88.25,2.5,2.5,2.833E-002,35.299,0.300,0.700,AutoCalculate,ACTIVITY SCHEDULE,No,3.8200E-008,1,3
 People Internal Gains Nominal, F6 SE APARTMENT PEOPLE,OCC_APT_SCH,F6 SE APARTMENT,88.25,2.5,2.5,2.833E-002,35.299,0.300,0.700,AutoCalculate,ACTIVITY SCHEDULE,No,3.8200E-008,1,3
 People Internal Gains Nominal, F6 SW APARTMENT PEOPLE,OCC_APT_SCH,F6 SW APARTMENT,88.25,2.5,2.5,2.833E-002,35.299,0.300,0.700,AutoCalculate,ACTIVITY SCHEDULE,No,3.8200E-008,1,3
 People Internal Gains Nominal, F7 N1 APARTMENT PEOPLE,OCC_APT_SCH,F7 N1 APARTMENT,88.25,2.5,2.5,2.833E-002,35.299,0.300,0.700,AutoCalculate,ACTIVITY SCHEDULE,No,3.8200E-008,1,3
 People Internal Gains Nominal, F7 N2 APARTMENT PEOPLE,OCC_APT_SCH,F7 N2 APARTMENT,88.25,2.5,2.5,2.833E-002,35.299,0.300,0.700,AutoCalculate,ACTIVITY SCHEDULE,No,3.8200E-008,1,3
 People Internal Gains Nominal, F7 NE APARTMENT PEOPLE,OCC_APT_SCH,F7 NE APARTMENT,88.25,2.5,2.5,2.833E-002,35.299,0.300,0.700,AutoCalculate,ACTIVITY SCHEDULE,No,3.8200E-008,1,3
 People Internal Gains Nominal, F7 NW APARTMENT PEOPLE,OCC_APT_SCH,F7 NW APARTMENT,88.25,2.5,2.5,2.833E-002,35.299,0.300,0.700,AutoCalculate,ACTIVITY SCHEDULE,No,3.8200E-008,1,3
 People Internal Gains Nominal, F7 S1 APARTMENT PEOPLE,OCC_APT_SCH,F7 S1 APARTMENT,88.25,2.5,2.5,2.833E-002,35.299,0.300,0.700,AutoCalculate,ACTIVITY SCHEDULE,No,3.8200E-008,1,3
 People Internal Gains Nominal, F7 S2 APARTMENT PEOPLE,OCC_APT_SCH,F7 S2 APARTMENT,88.25,2.5,2.5,2.833E-002,35.299,0.300,0.700,AutoCalculate,ACTIVITY SCHEDULE,No,3.8200E-008,1,3
 People Internal Gains Nominal, F7 SE APARTMENT PEOPLE,OCC_APT_SCH,F7 SE APARTMENT,88.25,2.5,2.5,2.833E-002,35.299,0.300,0.700,AutoCalculate,ACTIVITY SCHEDULE,No,3.8200E-008,1,3
 People Internal Gains Nominal, F7 SW APARTMENT PEOPLE,OCC_APT_SCH,F7 SW APARTMENT,88.25,2.5,2.5,2.833E-002,35.299,0.300,0.700,AutoCalculate,ACTIVITY SCHEDULE,No,3.8200E-008,1,3
 People Internal Gains Nominal, F8 N1 APARTMENT PEOPLE,OCC_APT_SCH,F8 N1 APARTMENT,88.25,2.5,2.5,2.833E-002,35.299,0.300,0.700,AutoCalculate,ACTIVITY SCHEDULE,No,3.8200E-008,1,3
 People Internal Gains Nominal, F8 N2 APARTMENT PEOPLE,OCC_APT_SCH,F8 N2 APARTMENT,88.25,2.5,2.5,2.833E-002,35.299,0.300,0.700,AutoCalculate,ACTIVITY SCHEDULE,No,3.8200E-008,1,3
 People Internal Gains Nominal, F8 NE APARTMENT PEOPLE,OCC_APT_SCH,F8 NE APARTMENT,88.25,2.5,2.5,2.833E-002,35.299,0.300,0.700,AutoCalculate,ACTIVITY SCHEDULE,No,3.8200E-008,1,3
 People Internal Gains Nominal, F8 NW APARTMENT PEOPLE,OCC_APT_SCH,F8 NW APARTMENT,88.25,2.5,2.5,2.833E-002,35.299,0.300,0.700,AutoCalculate,ACTIVITY SCHEDULE,No,3.8200E-008,1,3
 People Internal Gains Nominal, F8 S1 APARTMENT PEOPLE,OCC_APT_SCH,F8 S1 APARTMENT,88.25,2.5,2.5,2.833E-002,35.299,0.300,0.700,AutoCalculate,ACTIVITY SCHEDULE,No,3.8200E-008,1,3
 People Internal Gains Nominal, F8 S2 APARTMENT PEOPLE,OCC_APT_SCH,F8 S2 APARTMENT,88.25,2.5,2.5,2.833E-002,35.299,0.300,0.700,AutoCalculate,ACTIVITY SCHEDULE,No,3.8200E-008,1,3
 People Internal Gains Nominal, F8 SE APARTMENT PEOPLE,OCC_APT_SCH,F8 SE APARTMENT,88.25,2.5,2.5,2.833E-002,35.299,0.300,0.700,AutoCalculate,ACTIVITY SCHEDULE,No,3.8200E-008,1,3
 People Internal Gains Nominal, F8 SW APARTMENT PEOPLE,OCC_APT_SCH,F8 SW APARTMENT,88.25,2.5,2.5,2.833E-002,35.299,0.300,0.700,AutoCalculate,ACTIVITY SCHEDULE,No,3.8200E-008,1,3
 People Internal Gains Nominal, F9 N1 APARTMENT PEOPLE,OCC_APT_SCH,F9 N1 APARTMENT,88.25,2.5,2.5,2.833E-002,35.299,0.300,0.700,AutoCalculate,ACTIVITY SCHEDULE,No,3.8200E-008,1,3
 People Internal Gains Nominal, F9 N2 APARTMENT PEOPLE,OCC_APT_SCH,F9 N2 APARTMENT,88.25,2.5,2.5,2.833E-002,35.299,0.300,0.700,AutoCalculate,ACTIVITY SCHEDULE,No,3.8200E-008,1,3
 People Internal Gains Nominal, F9 NE APARTMENT PEOPLE,OCC_APT_SCH,F9 NE APARTMENT,88.25,2.5,2.5,2.833E-002,35.299,0.300,0.700,AutoCalculate,ACTIVITY SCHEDULE,No,3.8200E-008,1,3
 People Internal Gains Nominal, F9 NW APARTMENT PEOPLE,OCC_APT_SCH,F9 NW APARTMENT,88.25,2.5,2.5,2.833E-002,35.299,0.300,0.700,AutoCalculate,ACTIVITY SCHEDULE,No,3.8200E-008,1,3
 People Internal Gains Nominal, F9 S1 APARTMENT PEOPLE,OCC_APT_SCH,F9 S1 APARTMENT,88.25,2.5,2.5,2.833E-002,35.299,0.300,0.700,AutoCalculate,ACTIVITY SCHEDULE,No,3.8200E-008,1,3
 People Internal Gains Nominal, F9 S2 APARTMENT PEOPLE,OCC_APT_SCH,F9 S2 APARTMENT,88.25,2.5,2.5,2.833E-002,35.299,0.300,0.700,AutoCalculate,ACTIVITY SCHEDULE,No,3.8200E-008,1,3
 People Internal Gains Nominal, F9 SE APARTMENT PEOPLE,OCC_APT_SCH,F9 SE APARTMENT,88.25,2.5,2.5,2.833E-002,35.299,0.300,0.700,AutoCalculate,ACTIVITY SCHEDULE,No,3.8200E-008,1,3
 People Internal Gains Nominal, F9 SW APARTMENT PEOPLE,OCC_APT_SCH,F9 SW APARTMENT,88.25,2.5,2.5,2.833E-002,35.299,0.300,0.700,AutoCalculate,ACTIVITY SCHEDULE,No,3.8200E-008,1,3
 People Internal Gains Nominal, G N1 APARTMENT PEOPLE,OCC_APT_SCH,G N1 APARTMENT,88.25,2.5,2.5,2.833E-002,35.299,0.300,0.700,AutoCalculate,ACTIVITY SCHEDULE,No,3.8200E-008,1,3
 People Internal Gains Nominal, G N2 APARTMENT PEOPLE,OCC_APT_SCH,G N2 APARTMENT,88.25,2.5,2.5,2.833E-002,35.299,0.300,0.700,AutoCalculate,ACTIVITY SCHEDULE,No,3.8200E-008,1,3
 People Internal Gains Nominal, G NE APARTMENT PEOPLE,OCC_APT_SCH,G NE APARTMENT,88.25,2.5,2.5,2.833E-002,35.299,0.300,0.700,AutoCalculate,ACTIVITY SCHEDULE,No,3.8200E-008,1,3
 People Internal Gains Nominal, G NW APARTMENT PEOPLE,OCC_APT_SCH,G NW APARTMENT,88.25,2.5,2.5,2.833E-002,35.299,0.300,0.700,AutoCalculate,ACTIVITY SCHEDULE,No,3.8200E-008,1,3
 People Internal Gains Nominal, G S1 APARTMENT PEOPLE,OCC_APT_SCH,G S1 APARTMENT,88.25,2.5,2.5,2.833E-002,35.299,0.300,0.700,AutoCalculate,ACTIVITY SCHEDULE,No,3.8200E-008,1,3
 People Internal Gains Nominal, G S2 APARTMENT PEOPLE,OCC_APT_SCH,G S2 APARTMENT,88.25,2.5,2.5,2.833E-002,35.299,0.300,0.700,AutoCalculate,ACTIVITY SCHEDULE,No,3.8200E-008,1,3
 People Internal Gains Nominal, G SW APARTMENT PEOPLE,OCC_APT_SCH,G SW APARTMENT,88.25,2.5,2.5,2.833E-002,35.299,0.500,0.500,AutoCalculate,ACTIVITY SCHEDULE,No,3.8200E-008,1,3
 People Internal Gains Nominal, M N1 APARTMENT PEOPLE,OCC_APT_SCH,M N1 APARTMENT,88.25,2.5,2.5,2.833E-002,35.299,0.300,0.700,AutoCalculate,ACTIVITY SCHEDULE,No,3.8200E-008,1,3
 People Internal Gains Nominal, M N2 APARTMENT PEOPLE,OCC_APT_SCH,M N2 APARTMENT,88.25,2.5,2.5,2.833E-002,35.299,0.300,0.700,AutoCalculate,ACTIVITY SCHEDULE,No,3.8200E-008,1,3
 People Internal Gains Nominal, M NE APARTMENT PEOPLE,OCC_APT_SCH,M NE APARTMENT,88.25,2.5,2.5,2.833E-002,35.299,0.300,0.700,AutoCalculate,ACTIVITY SCHEDULE,No,3.8200E-008,1,3
 People Internal Gains Nominal, M NW APARTMENT PEOPLE,OCC_APT_SCH,M NW APARTMENT,88.25,2.5,2.5,2.833E-002,35.299,0.300,0.700,AutoCalculate,ACTIVITY SCHEDULE,No,3.8200E-008,1,3
 People Internal Gains Nominal, M S1 APARTMENT PEOPLE,OCC_APT_SCH,M S1 APARTMENT,88.25,2.5,2.5,2.833E-002,35.299,0.300,0.700,AutoCalculate,ACTIVITY SCHEDULE,No,3.8200E-008,1,3
 People Internal Gains Nominal, M S2 APARTMENT PEOPLE,OCC_APT_SCH,M S2 APARTMENT,88.25,2.5,2.5,2.833E-002,35.299,0.300,0.700,AutoCalculate,ACTIVITY SCHEDULE,No,3.8200E-008,1,3
 People Internal Gains Nominal, M SE APARTMENT PEOPLE,OCC_APT_SCH,M SE APARTMENT,88.25,2.5,2.5,2.833E-002,35.299,0.300,0.700,AutoCalculate,ACTIVITY SCHEDULE,No,3.8200E-008,1,3
 People Internal Gains Nominal, M SW APARTMENT PEOPLE,OCC_APT_SCH,M SW APARTMENT,88.25,2.5,2.5,2.833E-002,35.299,0.300,0.700,AutoCalculate,ACTIVITY SCHEDULE,No,3.8200E-008,1,3
 People Internal Gains Nominal, OFFICE PEOPLE,OCC_OFF_W_SB_SCH,OFFICE,88.25,1.0,1.0,1.133E-002,88.249,0.300,0.700,AutoCalculate,ACTIVITY SCHEDULE,No,3.8200E-008,0,1
 People Internal Gains Nominal, T N1 APARTMENT PEOPLE,OCC_APT_SCH,T N1 APARTMENT,88.25,2.5,2.5,2.833E-002,35.299,0.300,0.700,AutoCalculate,ACTIVITY SCHEDULE,No,3.8200E-008,1,3
 People Internal Gains Nominal, T N2 APARTMENT PEOPLE,OCC_APT_SCH,T N2 APARTMENT,88.25,2.5,2.5,2.833E-002,35.299,0.300,0.700,AutoCalculate,ACTIVITY SCHEDULE,No,3.8200E-008,1,3
 People Internal Gains Nominal, T NE APARTMENT PEOPLE,OCC_APT_SCH,T NE APARTMENT,88.25,2.5,2.5,2.833E-002,35.299,0.300,0.700,AutoCalculate,ACTIVITY SCHEDULE,No,3.8200E-008,1,3
 People Internal Gains Nominal, T NW APARTMENT PEOPLE,OCC_APT_SCH,T NW APARTMENT,88.25,2.5,2.5,2.833E-002,35.299,0.300,0.700,AutoCalculate,ACTIVITY SCHEDULE,No,3.8200E-008,1,3
 People Internal Gains Nominal, T S1 APARTMENT PEOPLE,OCC_APT_SCH,T S1 APARTMENT,88.25,2.5,2.5,2.833E-002,35.299,0.300,0.700,AutoCalculate,ACTIVITY SCHEDULE,No,3.8200E-008,1,3
 People Internal Gains Nominal, T S2 APARTMENT PEOPLE,OCC_APT_SCH,T S2 APARTMENT,88.25,2.5,2.5,2.833E-002,35.299,0.300,0.700,AutoCalculate,ACTIVITY SCHEDULE,No,3.8200E-008,1,3
 People Internal Gains Nominal, T SE APARTMENT PEOPLE,OCC_APT_SCH,T SE APARTMENT,88.25,2.5,2.5,2.833E-002,35.299,0.300,0.700,AutoCalculate,ACTIVITY SCHEDULE,No,3.8200E-008,1,3
 People Internal Gains Nominal, T SW APARTMENT PEOPLE,OCC_APT_SCH,T SW APARTMENT,88.25,2.5,2.5,2.833E-002,35.299,0.300,0.700,AutoCalculate,ACTIVITY SCHEDULE,No,3.8200E-008,1,3
! <Lights Internal Gains Nominal>,Name,Schedule Name,Zone Name,Zone Floor Area {m2},# Zone Occupants,Lighting Level {W},Lights/Floor Area {W/m2},Lights per person {W/person},Fraction Return Air,Fraction Radiant,Fraction Short Wave,Fraction Convected,Fraction Replaceable,End-Use Category,Nominal Minimum Lighting Level {W},Nominal Maximum Lighting Level {W}
 Lights Internal Gains Nominal, F2 CORRIDOR_LIGHTS_HARDWIRED,LTG_COR_SCH,F2 CORRIDOR,77.66,0.0,662.040,8.525,N/A,0.000,0.600,0.200,0.200,1.000,LightsWired,381.914,381.914
 Lights Internal Gains Nominal, F2 N1 APARTMENT_LIGHTS_HARDWIRED,LTG_APT_SCH,F2 N1 APARTMENT,88.25,2.5,1016.394,11.517,406.558,0.000,0.600,0.200,0.200,1.000,LightsWired,11.502,184.025
 Lights Internal Gains Nominal, F2 N1 APARTMENT_LIGHTS_PLUGIN,LTG_APT_SCH,F2 N1 APARTMENT,88.25,2.5,256.473,2.906,102.589,0.000,0.600,0.200,0.200,1.000,LightsPlugIn,2.902,46.436
 Lights Internal Gains Nominal, F2 N2 APARTMENT_LIGHTS_HARDWIRED,LTG_APT_SCH,F2 N2 APARTMENT,88.25,2.5,1016.394,11.517,406.558,0.000,0.600,0.200,0.200,1.000,LightsWired,11.502,184.025
 Lights Internal Gains Nominal, F2 N2 APARTMENT_LIGHTS_PLUGIN,LTG_APT_SCH,F2 N2 APARTMENT,88.25,2.5,256.473,2.906,102.589,0.000,0.600,0.200,0.200,1.000,LightsPlugIn,2.902,46.436
 Lights Internal Gains Nominal, F2 NE APARTMENT_LIGHTS_HARDWIRED,LTG_APT_SCH,F2 NE APARTMENT,88.25,2.5,1016.394,11.517,406.558,0.000,0.600,0.200,0.200,1.000,LightsWired,11.502,184.025
 Lights Internal Gains Nominal, F2 NE APARTMENT_LIGHTS_PLUGIN,LTG_APT_SCH,F2 NE APARTMENT,88.25,2.5,256.473,2.906,102.589,0.000,0.600,0.200,0.200,1.000,LightsPlugIn,2.902,46.436
 Lights Internal Gains Nominal, F2 NW APARTMENT_LIGHTS_HARDWIRED,LTG_APT_SCH,F2 NW APARTMENT,88.25,2.5,1016.394,11.517,406.558,0.000,0.600,0.200,0.200,1.000,LightsWired,11.502,184.025
 Lights Internal Gains Nominal, F2 NW APARTMENT_LIGHTS_PLUGIN,LTG_APT_SCH,F2 NW APARTMENT,88.25,2.5,256.473,2.906,102.589,0.000,0.600,0.200,0.200,1.000,LightsPlugIn,2.902,46.436
 Lights Internal Gains Nominal, F2 S1 APARTMENT_LIGHTS_HARDWIRED,LTG_APT_SCH,F2 S1 APARTMENT,88.25,2.5,1016.394,11.517,406.558,0.000,0.600,0.200,0.200,1.000,LightsWired,11.502,184.025
 Lights Internal Gains Nominal, F2 S1 APARTMENT_LIGHTS_PLUGIN,LTG_APT_SCH,F2 S1 APARTMENT,88.25,2.5,256.473,2.906,102.589,0.000,0.600,0.200,0.200,1.000,LightsPlugIn,2.902,46.436
 Lights Internal Gains Nominal, F2 S2 APARTMENT_LIGHTS_HARDWIRED,LTG_APT_SCH,F2 S2 APARTMENT,88.25,2.5,1016.394,11.517,406.558,0.000,0.600,0.200,0.200,1.000,LightsWired,11.502,184.025
 Lights Internal Gains Nominal, F2 S2 APARTMENT_LIGHTS_PLUGIN,LTG_APT_SCH,F2 S2 APARTMENT,88.25,2.5,256.473,2.906,102.589,0.000,0.600,0.200,0.200,1.000,LightsPlugIn,2.902,46.436
 Lights Internal Gains Nominal, F2 SE APARTMENT_LIGHTS_HARDWIRED,LTG_APT_SCH,F2 SE APARTMENT,88.25,2.5,1016.394,11.517,406.558,0.000,0.600,0.200,0.200,1.000,LightsWired,11.502,184.025
 Lights Internal Gains Nominal, F2 SE APARTMENT_LIGHTS_PLUGIN,LTG_APT_SCH,F2 SE APARTMENT,88.25,2.5,256.473,2.906,102.589,0.000,0.600,0.200,0.200,1.000,LightsPlugIn,2.902,46.436
 Lights Internal Gains Nominal, F2 SW APARTMENT_LIGHTS_HARDWIRED,LTG_APT_SCH,F2 SW APARTMENT,88.25,2.5,1016.394,11.517,406.558,0.000,0.600,0.200,0.200,1.000,LightsWired,11.502,184.025
 Lights Internal Gains Nominal, F2 SW APARTMENT_LIGHTS_PLUGIN,LTG_APT_SCH,F2 SW APARTMENT,88.25,2.5,256.473,2.906,102.589,0.000,0.600,0.200,0.200,1.000,LightsPlugIn,2.902,46.436
 Lights Internal Gains Nominal, F3 CORRIDOR_LIGHTS_HARDWIRED,LTG_COR_SCH,F3 CORRIDOR,77.66,0.0,662.040,8.525,N/A,0.000,0.600,0.200,0.200,1.000,LightsWired,381.914,381.914
 Lights Internal Gains Nominal, F3 N1 APARTMENT_LIGHTS_HARDWIRED,LTG_APT_SCH,F3 N1 APARTMENT,88.25,2.5,1016.394,11.517,406.558,0.000,0.600,0.200,0.200,1.000,LightsWired,11.502,184.025
 Lights Internal Gains Nominal, F3 N1 APARTMENT_LIGHTS_PLUGIN,LTG_APT_SCH,F3 N1 APARTMENT,88.25,2.5,256.473,2.906,102.589,0.000,0.600,0.200,0.200,1.000,LightsPlugIn,2.902,46.436
 Lights Internal Gains Nominal, F3 N2 APARTMENT_LIGHTS_HARDWIRED,LTG_APT_SCH,F3 N2 APARTMENT,88.25,2.5,1016.394,11.517,406.558,0.000,0.600,0.200,0.200,1.000,LightsWired,11.502,184.025
 Lights Internal Gains Nominal, F3 N2 APARTMENT_LIGHTS_PLUGIN,LTG_APT_SCH,F3 N2 APARTMENT,88.25,2.5,256.473,2.906,102.589,0.000,0.600,0.200,0.200,1.000,LightsPlugIn,2.902,46.436
 Lights Internal Gains Nominal, F3 NE APARTMENT_LIGHTS_HARDWIRED,LTG_APT_SCH,F3 NE APARTMENT,88.25,2.5,1016.394,11.517,406.558,0.000,0.600,0.200,0.200,1.000,LightsWired,11.502,184.025
 Lights Internal Gains Nominal, F3 NE APARTMENT_LIGHTS_PLUGIN,LTG_APT_SCH,F3 NE APARTMENT,88.25,2.5,256.473,2.906,102.589,0.000,0.600,0.200,0.200,1.000,LightsPlugIn,2.902,46.436
 Lights Internal Gains Nominal, F3 NW APARTMENT_LIGHTS_HARDWIRED,LTG_APT_SCH,F3 NW APARTMENT,88.25,2.5,1016.394,11.517,406.558,0.000,0.600,0.200,0.200,1.000,LightsWired,11.502,184.025
 Lights Internal Gains Nominal, F3 NW APARTMENT_LIGHTS_PLUGIN,LTG_APT_SCH,F3 NW APARTMENT,88.25,2.5,256.473,2.906,102.589,0.000,0.600,0.200,0.200,1.000,LightsPlugIn,2.902,46.436
 Lights Internal Gains Nominal, F3 S1 APARTMENT_LIGHTS_HARDWIRED,LTG_APT_SCH,F3 S1 APARTMENT,88.25,2.5,1016.394,11.517,406.558,0.000,0.600,0.200,0.200,1.000,LightsWired,11.502,184.025
 Lights Internal Gains Nominal, F3 S1 APARTMENT_LIGHTS_PLUGIN,LTG_APT_SCH,F3 S1 APARTMENT,88.25,2.5,256.473,2.906,102.589,0.000,0.600,0.200,0.200,1.000,LightsPlugIn,2.902,46.436
 Lights Internal Gains Nominal, F3 S2 APARTMENT_LIGHTS_HARDWIRED,LTG_APT_SCH,F3 S2 APARTMENT,88.25,2.5,1016.394,11.517,406.558,0.000,0.600,0.200,0.200,1.000,LightsWired,11.502,184.025
 Lights Internal Gains Nominal, F3 S2 APARTMENT_LIGHTS_PLUGIN,LTG_APT_SCH,F3 S2 APARTMENT,88.25,2.5,256.473,2.906,102.589,0.000,0.600,0.200,0.200,1.000,LightsPlugIn,2.902,46.436
 Lights Internal Gains Nominal, F3 SE APARTMENT_LIGHTS_HARDWIRED,LTG_APT_SCH,F3 SE APARTMENT,88.25,2.5,1016.394,11.517,406.558,0.000,0.600,0.200,0.200,1.000,LightsWired,11.502,184.025
 Lights Internal Gains Nominal, F3 SE APARTMENT_LIGHTS_PLUGIN,LTG_APT_SCH,F3 SE APARTMENT,88.25,2.5,256.473,2.906,102.589,0.000,0.600,0.200,0.200,1.000,LightsPlugIn,2.902,46.436
 Lights Internal Gains Nominal, F3 SW APARTMENT_LIGHTS_HARDWIRED,LTG_APT_SCH,F3 SW APARTMENT,88.25,2.5,1016.394,11.517,406.558,0.000,0.600,0.200,0.200,1.000,LightsWired,11.502,184.025
 Lights Internal Gains Nominal, F3 SW APARTMENT_LIGHTS_PLUGIN,LTG_APT_SCH,F3 SW APARTMENT,88.25,2.5,256.473,2.906,102.589,0.000,0.600,0.200,0.200,1.000,LightsPlugIn,2.902,46.436
 Lights Internal Gains Nominal, F4 CORRIDOR_LIGHTS_HARDWIRED,LTG_COR_SCH,F4 CORRIDOR,77.66,0.0,662.040,8.525,N/A,0.000,0.600,0.200,0.200,1.000,LightsWired,381.914,381.914
 Lights Internal Gains Nominal, F4 N1 APARTMENT_LIGHTS_HARDWIRED,LTG_APT_SCH,F4 N1 APARTMENT,88.25,2.5,1016.394,11.517,406.558,0.000,0.600,0.200,0.200,1.000,LightsWired,11.502,184.025
 Lights Internal Gains Nominal, F4 N1 APARTMENT_LIGHTS_PLUGIN,LTG_APT_SCH,F4 N1 APARTMENT,88.25,2.5,256.473,2.906,102.589,0.000,0.600,0.200,0.200,1.000,LightsPlugIn,2.902,46.436
 Lights Internal Gains Nominal, F4 N2 APARTMENT_LIGHTS_HARDWIRED,LTG_APT_SCH,F4 N2 APARTMENT,88.25,2.5,1016.394,11.517,406.558,0.000,0.600,0.200,0.200,1.000,LightsWired,11.502,184.025
 Lights Internal Gains Nominal, F4 N2 APARTMENT_LIGHTS_PLUGIN,LTG_APT_SCH,F4 N2 APARTMENT,88.25,2.5,256.473,2.906,102.589,0.000,0.600,0.200,0.200,1.000,LightsPlugIn,2.902,46.436
 Lights Internal Gains Nominal, F4 NE APARTMENT_LIGHTS_HARDWIRED,LTG_APT_SCH,F4 NE APARTMENT,88.25,2.5,1016.394,11.517,406.558,0.000,0.600,0.200,0.200,1.000,LightsWired,11.502,184.025
 Lights Internal Gains Nominal, F4 NE APARTMENT_LIGHTS_PLUGIN,LTG_APT_SCH,F4 NE APARTMENT,88.25,2.5,256.473,2.906,102.589,0.000,0.600,0.200,0.200,1.000,LightsPlugIn,2.902,46.436
 Lights Internal Gains Nominal, F4 NW APARTMENT_LIGHTS_HARDWIRED,LTG_APT_SCH,F4 NW APARTMENT,88.25,2.5,1016.394,11.517,406.558,0.000,0.600,0.200,0.200,1.000,LightsWired,11.502,184.025
 Lights Internal Gains Nominal, F4 NW APARTMENT_LIGHTS_PLUGIN,LTG_APT_SCH,F4 NW APARTMENT,88.25,2.5,256.473,2.906,102.589,0.000,0.600,0.200,0.200,1.000,LightsPlugIn,2.902,46.436
 Lights Internal Gains Nominal, F4 S1 APARTMENT_LIGHTS_HARDWIRED,LTG_APT_SCH,F4 S1 APARTMENT,88.25,2.5,1016.394,11.517,406.558,0.000,0.600,0.200,0.200,1.000,LightsWired,11.502,184.025
 Lights Internal Gains Nominal, F4 S1 APARTMENT_LIGHTS_PLUGIN,LTG_APT_SCH,F4 S1 APARTMENT,88.25,2.5,256.473,2.906,102.589,0.000,0.600,0.200,0.200,1.000,LightsPlugIn,2.902,46.436
 Lights Internal Gains Nominal, F4 S2 APARTMENT_LIGHTS_HARDWIRED,LTG_APT_SCH,F4 S2 APARTMENT,88.25,2.5,1016.394,11.517,406.558,0.000,0.600,0.200,0.200,1.000,LightsWired,11.502,184.025
 Lights Internal Gains Nominal, F4 S2 APARTMENT_LIGHTS_PLUGIN,LTG_APT_SCH,F4 S2 APARTMENT,88.25,2.5,256.473,2.906,102.589,0.000,0.600,0.200,0.200,1.000,LightsPlugIn,2.902,46.436
 Lights Internal Gains Nominal, F4 SE APARTMENT_LIGHTS_HARDWIRED,LTG_APT_SCH,F4 SE APARTMENT,88.25,2.5,1016.394,11.517,406.558,0.000,0.600,0.200,0.200,1.000,LightsWired,11.502,184.025
 Lights Internal Gains Nominal, F4 SE APARTMENT_LIGHTS_PLUGIN,LTG_APT_SCH,F4 SE APARTMENT,88.25,2.5,256.473,2.906,102.589,0.000,0.600,0.200,0.200,1.000,LightsPlugIn,2.902,46.436
 Lights Internal Gains Nominal, F4 SW APARTMENT_LIGHTS_HARDWIRED,LTG_APT_SCH,F4 SW APARTMENT,88.25,2.5,1016.394,11.517,406.558,0.000,0.600,0.200,0.200,1.000,LightsWired,11.502,184.025
 Lights Internal Gains Nominal, F4 SW APARTMENT_LIGHTS_PLUGIN,LTG_APT_SCH,F4 SW APARTMENT,88.25,2.5,256.473,2.906,102.589,0.000,0.600,0.200,0.200,1.000,LightsPlugIn,2.902,46.436
 Lights Internal Gains Nominal, F6 CORRIDOR_LIGHTS_HARDWIRED,LTG_COR_SCH,F6 CORRIDOR,77.66,0.0,662.040,8.525,N/A,0.000,0.600,0.200,0.200,1.000,LightsWired,381.914,381.914
 Lights Internal Gains Nominal, F6 N1 APARTMENT_LIGHTS_HARDWIRED,LTG_APT_SCH,F6 N1 APARTMENT,88.25,2.5,1016.394,11.517,406.558,0.000,0.600,0.200,0.200,1.000,LightsWired,11.502,184.025
 Lights Internal Gains Nominal, F6 N1 APARTMENT_LIGHTS_PLUGIN,LTG_APT_SCH,F6 N1 APARTMENT,88.25,2.5,256.473,2.906,102.589,0.000,0.600,0.200,0.200,1.000,LightsPlugIn,2.902,46.436
 Lights Internal Gains Nominal, F6 N2 APARTMENT_LIGHTS_HARDWIRED,LTG_APT_SCH,F6 N2 APARTMENT,88.25,2.5,1016.394,11.517,406.558,0.000,0.600,0.200,0.200,1.000,LightsWired,11.502,184.025
 Lights Internal Gains Nominal, F6 N2 APARTMENT_LIGHTS_PLUGIN,LTG_APT_SCH,F6 N2 APARTMENT,88.25,2.5,256.473,2.906,102.589,0.000,0.600,0.200,0.200,1.000,LightsPlugIn,2.902,46.436
 Lights Internal Gains Nominal, F6 NE APARTMENT_LIGHTS_HARDWIRED,LTG_APT_SCH,F6 NE APARTMENT,88.25,2.5,1016.394,11.517,406.558,0.000,0.600,0.200,0.200,1.000,LightsWired,11.502,184.025
 Lights Internal Gains Nominal, F6 NE APARTMENT_LIGHTS_PLUGIN,LTG_APT_SCH,F6 NE APARTMENT,88.25,2.5,256.473,2.906,102.589,0.000,0.600,0.200,0.200,1.000,LightsPlugIn,2.902,46.436
 Lights Internal Gains Nominal, F6 NW APARTMENT_LIGHTS_HARDWIRED,LTG_APT_SCH,F6 NW APARTMENT,88.25,2.5,1016.394,11.517,406.558,0.000,0.600,0.200,0.200,1.000,LightsWired,11.502,184.025
 Lights Internal Gains Nominal, F6 NW APARTMENT_LIGHTS_PLUGIN,LTG_APT_SCH,F6 NW APARTMENT,88.25,2.5,256.473,2.906,102.589,0.000,0.600,0.200,0.200,1.000,LightsPlugIn,2.902,46.436
 Lights Internal Gains Nominal, F6 S1 APARTMENT_LIGHTS_HARDWIRED,LTG_APT_SCH,F6 S1 APARTMENT,88.25,2.5,1016.394,11.517,406.558,0.000,0.600,0.200,0.200,1.000,LightsWired,11.502,184.025
 Lights Internal Gains Nominal, F6 S1 APARTMENT_LIGHTS_PLUGIN,LTG_APT_SCH,F6 S1 APARTMENT,88.25,2.5,256.473,2.906,102.589,0.000,0.600,0.200,0.200,1.000,LightsPlugIn,2.902,46.436
 Lights Internal Gains Nominal, F6 S2 APARTMENT_LIGHTS_HARDWIRED,LTG_APT_SCH,F6 S2 APARTMENT,88.25,2.5,1016.394,11.517,406.558,0.000,0.600,0.200,0.200,1.000,LightsWired,11.502,184.025
 Lights Internal Gains Nominal, F6 S2 APARTMENT_LIGHTS_PLUGIN,LTG_APT_SCH,F6 S2 APARTMENT,88.25,2.5,256.473,2.906,102.589,0.000,0.600,0.200,0.200,1.000,LightsPlugIn,2.902,46.436
 Lights Internal Gains Nominal, F6 SE APARTMENT_LIGHTS_HARDWIRED,LTG_APT_SCH,F6 SE APARTMENT,88.25,2.5,1016.394,11.517,406.558,0.000,0.600,0.200,0.200,1.000,LightsWired,11.502,184.025
 Lights Internal Gains Nominal, F6 SE APARTMENT_LIGHTS_PLUGIN,LTG_APT_SCH,F6 SE APARTMENT,88.25,2.5,256.473,2.906,102.589,0.000,0.600,0.200,0.200,1.000,LightsPlugIn,2.902,46.436
 Lights Internal Gains Nominal, F6 SW APARTMENT_LIGHTS_HARDWIRED,LTG_APT_SCH,F6 SW APARTMENT,88.25,2.5,1016.394,11.517,406.558,0.000,0.600,0.200,0.200,1.000,LightsWired,11.502,184.025
 Lights Internal Gains Nominal, F6 SW APARTMENT_LIGHTS_PLUGIN,LTG_APT_SCH,F6 SW APARTMENT,88.25,2.5,256.473,2.906,102.589,0.000,0.600,0.200,0.200,1.000,LightsPlugIn,2.902,46.436
 Lights Internal Gains Nominal, F7 CORRIDOR_LIGHTS_HARDWIRED,LTG_COR_SCH,F7 CORRIDOR,77.66,0.0,662.040,8.525,N/A,0.000,0.600,0.200,0.200,1.000,LightsWired,381.914,381.914
 Lights Internal Gains Nominal, F7 N1 APARTMENT_LIGHTS_HARDWIRED,LTG_APT_SCH,F7 N1 APARTMENT,88.25,2.5,1016.394,11.517,406.558,0.000,0.600,0.200,0.200,1.000,LightsWired,11.502,184.025
 Lights Internal Gains Nominal, F7 N1 APARTMENT_LIGHTS_PLUGIN,LTG_APT_SCH,F7 N1 APARTMENT,88.25,2.5,256.473,2.906,102.589,0.000,0.600,0.200,0.200,1.000,LightsPlugIn,2.902,46.436
 Lights Internal Gains Nominal, F7 N2 APARTMENT_LIGHTS_HARDWIRED,LTG_APT_SCH,F7 N2 APARTMENT,88.25,2.5,1016.394,11.517,406.558,0.000,0.600,0.200,0.200,1.000,LightsWired,11.502,184.025
 Lights Internal Gains Nominal, F7 N2 APARTMENT_LIGHTS_PLUGIN,LTG_APT_SCH,F7 N2 APARTMENT,88.25,2.5,256.473,2.906,102.589,0.000,0.600,0.200,0.200,1.000,LightsPlugIn,2.902,46.436
 Lights Internal Gains Nominal, F7 NE APARTMENT_LIGHTS_HARDWIRED,LTG_APT_SCH,F7 NE APARTMENT,88.25,2.5,1016.394,11.517,406.558,0.000,0.600,0.200,0.200,1.000,LightsWired,11.502,184.025
 Lights Internal Gains Nominal, F7 NE APARTMENT_LIGHTS_PLUGIN,LTG_APT_SCH,F7 NE APARTMENT,88.25,2.5,256.473,2.906,102.589,0.000,0.600,0.200,0.200,1.000,LightsPlugIn,2.902,46.436
 Lights Internal Gains Nominal, F7 NW APARTMENT_LIGHTS_HARDWIRED,LTG_APT_SCH,F7 NW APARTMENT,88.25,2.5,1016.394,11.517,406.558,0.000,0.600,0.200,0.200,1.000,LightsWired,11.502,184.025
 Lights Internal Gains Nominal, F7 NW APARTMENT_LIGHTS_PLUGIN,LTG_APT_SCH,F7 NW APARTMENT,88.25,2.5,256.473,2.906,102.589,0.000,0.600,0.200,0.200,1.000,LightsPlugIn,2.902,46.436
 Lights Internal Gains Nominal, F7 S1 APARTMENT_LIGHTS_HARDWIRED,LTG_APT_SCH,F7 S1 APARTMENT,88.25,2.5,1016.394,11.517,406.558,0.000,0.600,0.200,0.200,1.000,LightsWired,11.502,184.025
 Lights Internal Gains Nominal, F7 S1 APARTMENT_LIGHTS_PLUGIN,LTG_APT_SCH,F7 S1 APARTMENT,88.25,2.5,256.473,2.906,102.589,0.000,0.600,0.200,0.200,1.000,LightsPlugIn,2.902,46.436
 Lights Internal Gains Nominal, F7 S2 APARTMENT_LIGHTS_HARDWIRED,LTG_APT_SCH,F7 S2 APARTMENT,88.25,2.5,1016.394,11.517,406.558,0.000,0.600,0.200,0.200,1.000,LightsWired,11.502,184.025
 Lights Internal Gains Nominal, F7 S2 APARTMENT_LIGHTS_PLUGIN,LTG_APT_SCH,F7 S2 APARTMENT,88.25,2.5,256.473,2.906,102.589,0.000,0.600,0.200,0.200,1.000,LightsPlugIn,2.902,46.436
 Lights Internal Gains Nominal, F7 SE APARTMENT_LIGHTS_HARDWIRED,LTG_APT_SCH,F7 SE APARTMENT,88.25,2.5,1016.394,11.517,406.558,0.000,0.600,0.200,0.200,1.000,LightsWired,11.502,184.025
 Lights Internal Gains Nominal, F7 SE APARTMENT_LIGHTS_PLUGIN,LTG_APT_SCH,F7 SE APARTMENT,88.25,2.5,256.473,2.906,102.589,0.000,0.600,0.200,0.200,1.000,LightsPlugIn,2.902,46.436
 Lights Internal Gains Nominal, F7 SW APARTMENT_LIGHTS_HARDWIRED,LTG_APT_SCH,F7 SW APARTMENT,88.25,2.5,1016.394,11.517,406.558,0.000,0.600,0.200,0.200,1.000,LightsWired,11.502,184.025
 Lights Internal Gains Nominal, F7 SW APARTMENT_LIGHTS_PLUGIN,LTG_APT_SCH,F7 SW APARTMENT,88.25,2.5,256.473,2.906,102.589,0.000,0.600,0.200,0.200,1.000,LightsPlugIn,2.902,46.436
 Lights Internal Gains Nominal, F8 CORRIDOR_LIGHTS_HARDWIRED,LTG_COR_SCH,F8 CORRIDOR,77.66,0.0,662.040,8.525,N/A,0.000,0.600,0.200,0.200,1.000,LightsWired,381.914,381.914
 Lights Internal Gains Nominal, F8 N1 APARTMENT_LIGHTS_HARDWIRED,LTG_APT_SCH,F8 N1 APARTMENT,88.25,2.5,1016.394,11.517,406.558,0.000,0.600,0.200,0.200,1.000,LightsWired,11.502,184.025
 Lights Internal Gains Nominal, F8 N1 APARTMENT_LIGHTS_PLUGIN,LTG_APT_SCH,F8 N1 APARTMENT,88.25,2.5,256.473,2.906,102.589,0.000,0.600,0.200,0.200,1.000,LightsPlugIn,2.902,46.436
 Lights Internal Gains Nominal, F8 N2 APARTMENT_LIGHTS_HARDWIRED,LTG_APT_SCH,F8 N2 APARTMENT,88.25,2.5,1016.394,11.517,406.558,0.000,0.600,0.200,0.200,1.000,LightsWired,11.502,184.025
 Lights Internal Gains Nominal, F8 N2 APARTMENT_LIGHTS_PLUGIN,LTG_APT_SCH,F8 N2 APARTMENT,88.25,2.5,256.473,2.906,102.589,0.000,0.600,0.200,0.200,1.000,LightsPlugIn,2.902,46.436
 Lights Internal Gains Nominal, F8 NE APARTMENT_LIGHTS_HARDWIRED,LTG_APT_SCH,F8 NE APARTMENT,88.25,2.5,1016.394,11.517,406.558,0.000,0.600,0.200,0.200,1.000,LightsWired,11.502,184.025
 Lights Internal Gains Nominal, F8 NE APARTMENT_LIGHTS_PLUGIN,LTG_APT_SCH,F8 NE APARTMENT,88.25,2.5,256.473,2.906,102.589,0.000,0.600,0.200,0.200,1.000,LightsPlugIn,2.902,46.436
 Lights Internal Gains Nominal, F8 NW APARTMENT_LIGHTS_HARDWIRED,LTG_APT_SCH,F8 NW APARTMENT,88.25,2.5,1016.394,11.517,406.558,0.000,0.600,0.200,0.200,1.000,LightsWired,11.502,184.025
 Lights Internal Gains Nominal, F8 NW APARTMENT_LIGHTS_PLUGIN,LTG_APT_SCH,F8 NW APARTMENT,88.25,2.5,256.473,2.906,102.589,0.000,0.600,0.200,0.200,1.000,LightsPlugIn,2.902,46.436
 Lights Internal Gains Nominal, F8 S1 APARTMENT_LIGHTS_HARDWIRED,LTG_APT_SCH,F8 S1 APARTMENT,88.25,2.5,1016.394,11.517,406.558,0.000,0.600,0.200,0.200,1.000,LightsWired,11.502,184.025
 Lights Internal Gains Nominal, F8 S1 APARTMENT_LIGHTS_PLUGIN,LTG_APT_SCH,F8 S1 APARTMENT,88.25,2.5,256.473,2.906,102.589,0.000,0.600,0.200,0.200,1.000,LightsPlugIn,2.902,46.436
 Lights Internal Gains Nominal, F8 S2 APARTMENT_LIGHTS_HARDWIRED,LTG_APT_SCH,F8 S2 APARTMENT,88.25,2.5,1016.394,11.517,406.558,0.000,0.600,0.200,0.200,1.000,LightsWired,11.502,184.025
 Lights Internal Gains Nominal, F8 S2 APARTMENT_LIGHTS_PLUGIN,LTG_APT_SCH,F8 S2 APARTMENT,88.25,2.5,256.473,2.906,102.589,0.000,0.600,0.200,0.200,1.000,LightsPlugIn,2.902,46.436
 Lights Internal Gains Nominal, F8 SE APARTMENT_LIGHTS_HARDWIRED,LTG_APT_SCH,F8 SE APARTMENT,88.25,2.5,1016.394,11.517,406.558,0.000,0.600,0.200,0.200,1.000,LightsWired,11.502,184.025
 Lights Internal Gains Nominal, F8 SE APARTMENT_LIGHTS_PLUGIN,LTG_APT_SCH,F8 SE APARTMENT,88.25,2.5,256.473,2.906,102.589,0.000,0.600,0.200,0.200,1.000,LightsPlugIn,2.902,46.436
 Lights Internal Gains Nominal, F8 SW APARTMENT_LIGHTS_HARDWIRED,LTG_APT_SCH,F8 SW APARTMENT,88.25,2.5,1016.394,11.517,406.558,0.000,0.600,0.200,0.200,1.000,LightsWired,11.502,184.025
 Lights Internal Gains Nominal, F8 SW APARTMENT_LIGHTS_PLUGIN,LTG_APT_SCH,F8 SW APARTMENT,88.25,2.5,256.473,2.906,102.589,0.000,0.600,0.200,0.200,1.000,LightsPlugIn,2.902,46.436
 Lights Internal Gains Nominal, F9 CORRIDOR_LIGHTS_HARDWIRED,LTG_COR_SCH,F9 CORRIDOR,77.66,0.0,662.040,8.525,N/A,0.000,0.600,0.200,0.200,1.000,LightsWired,381.914,381.914
 Lights Internal Gains Nominal, F9 N1 APARTMENT_LIGHTS_HARDWIRED,LTG_APT_SCH,F9 N1 APARTMENT,88.25,2.5,1016.394,11.517,406.558,0.000,0.600,0.200,0.200,1.000,LightsWired,11.502,184.025
 Lights Internal Gains Nominal, F9 N1 APARTMENT_LIGHTS_PLUGIN,LTG_APT_SCH,F9 N1 APARTMENT,88.25,2.5,256.473,2.906,102.589,0.000,0.600,0.200,0.200,1.000,LightsPlugIn,2.902,46.436
 Lights Internal Gains Nominal, F9 N2 APARTMENT_LIGHTS_HARDWIRED,LTG_APT_SCH,F9 N2 APARTMENT,88.25,2.5,1016.394,11.517,406.558,0.000,0.600,0.200,0.200,1.000,LightsWired,11.502,184.025
 Lights Internal Gains Nominal, F9 N2 APARTMENT_LIGHTS_PLUGIN,LTG_APT_SCH,F9 N2 APARTMENT,88.25,2.5,256.473,2.906,102.589,0.000,0.600,0.200,0.200,1.000,LightsPlugIn,2.902,46.436
 Lights Internal Gains Nominal, F9 NE APARTMENT_LIGHTS_HARDWIRED,LTG_APT_SCH,F9 NE APARTMENT,88.25,2.5,1016.394,11.517,406.558,0.000,0.600,0.200,0.200,1.000,LightsWired,11.502,184.025
 Lights Internal Gains Nominal, F9 NE APARTMENT_LIGHTS_PLUGIN,LTG_APT_SCH,F9 NE APARTMENT,88.25,2.5,256.473,2.906,102.589,0.000,0.600,0.200,0.200,1.000,LightsPlugIn,2.902,46.436
 Lights Internal Gains Nominal, F9 NW APARTMENT_LIGHTS_HARDWIRED,LTG_APT_SCH,F9 NW APARTMENT,88.25,2.5,1016.394,11.517,406.558,0.000,0.600,0.200,0.200,1.000,LightsWired,11.502,184.025
 Lights Internal Gains Nominal, F9 NW APARTMENT_LIGHTS_PLUGIN,LTG_APT_SCH,F9 NW APARTMENT,88.25,2.5,256.473,2.906,102.589,0.000,0.600,0.200,0.200,1.000,LightsPlugIn,2.902,46.436
 Lights Internal Gains Nominal, F9 S1 APARTMENT_LIGHTS_HARDWIRED,LTG_APT_SCH,F9 S1 APARTMENT,88.25,2.5,1016.394,11.517,406.558,0.000,0.600,0.200,0.200,1.000,LightsWired,11.502,184.025
 Lights Internal Gains Nominal, F9 S1 APARTMENT_LIGHTS_PLUGIN,LTG_APT_SCH,F9 S1 APARTMENT,88.25,2.5,256.473,2.906,102.589,0.000,0.600,0.200,0.200,1.000,LightsPlugIn,2.902,46.436
 Lights Internal Gains Nominal, F9 S2 APARTMENT_LIGHTS_HARDWIRED,LTG_APT_SCH,F9 S2 APARTMENT,88.25,2.5,1016.394,11.517,406.558,0.000,0.600,0.200,0.200,1.000,LightsWired,11.502,184.025
 Lights Internal Gains Nominal, F9 S2 APARTMENT_LIGHTS_PLUGIN,LTG_APT_SCH,F9 S2 APARTMENT,88.25,2.5,256.473,2.906,102.589,0.000,0.600,0.200,0.200,1.000,LightsPlugIn,2.902,46.436
 Lights Internal Gains Nominal, F9 SE APARTMENT_LIGHTS_HARDWIRED,LTG_APT_SCH,F9 SE APARTMENT,88.25,2.5,1016.394,11.517,406.558,0.000,0.600,0.200,0.200,1.000,LightsWired,11.502,184.025
 Lights Internal Gains Nominal, F9 SE APARTMENT_LIGHTS_PLUGIN,LTG_APT_SCH,F9 SE APARTMENT,88.25,2.5,256.473,2.906,102.589,0.000,0.600,0.200,0.200,1.000,LightsPlugIn,2.902,46.436
 Lights Internal Gains Nominal, F9 SW APARTMENT_LIGHTS_HARDWIRED,LTG_APT_SCH,F9 SW APARTMENT,88.25,2.5,1016.394,11.517,406.558,0.000,0.600,0.200,0.200,1.000,LightsWired,11.502,184.025
 Lights Internal Gains Nominal, F9 SW APARTMENT_LIGHTS_PLUGIN,LTG_APT_SCH,F9 SW APARTMENT,88.25,2.5,256.473,2.906,102.589,0.000,0.600,0.200,0.200,1.000,LightsPlugIn,2.902,46.436
 Lights Internal Gains Nominal, G CORRIDOR_LIGHTS_HARDWIRED,LTG_COR_SCH,G CORRIDOR,77.66,0.0,662.040,8.525,N/A,0.000,0.600,0.200,0.200,1.000,LightsWired,381.914,381.914
 Lights Internal Gains Nominal, G N1 APARTMENT_LIGHTS_HARDWIRED,LTG_APT_SCH,G N1 APARTMENT,88.25,2.5,1016.394,11.517,406.558,0.000,0.600,0.200,0.200,1.000,LightsWired,11.502,184.025
 Lights Internal Gains Nominal, G N1 APARTMENT_LIGHTS_PLUGIN,LTG_APT_SCH,G N1 APARTMENT,88.25,2.5,256.473,2.906,102.589,0.000,0.600,0.200,0.200,1.000,LightsPlugIn,2.902,46.436
 Lights Internal Gains Nominal, G N2 APARTMENT_LIGHTS_HARDWIRED,LTG_APT_SCH,G N2 APARTMENT,88.25,2.5,1016.394,11.517,406.558,0.000,0.600,0.200,0.200,1.000,LightsWired,11.502,184.025
 Lights Internal Gains Nominal, G N2 APARTMENT_LIGHTS_PLUGIN,LTG_APT_SCH,G N2 APARTMENT,88.25,2.5,256.473,2.906,102.589,0.000,0.600,0.200,0.200,1.000,LightsPlugIn,2.902,46.436
 Lights Internal Gains Nominal, G NE APARTMENT_LIGHTS_HARDWIRED,LTG_APT_SCH,G NE APARTMENT,88.25,2.5,1016.394,11.517,406.558,0.000,0.600,0.200,0.200,1.000,LightsWired,11.502,184.025
 Lights Internal Gains Nominal, G NE APARTMENT_LIGHTS_PLUGIN,LTG_APT_SCH,G NE APARTMENT,88.25,2.5,256.473,2.906,102.589,0.000,0.600,0.200,0.200,1.000,LightsPlugIn,2.902,46.436
 Lights Internal Gains Nominal, G NW APARTMENT_LIGHTS_HARDWIRED,LTG_APT_SCH,G NW APARTMENT,88.25,2.5,1016.394,11.517,406.558,0.000,0.600,0.200,0.200,1.000,LightsWired,11.502,184.025
 Lights Internal Gains Nominal, G NW APARTMENT_LIGHTS_PLUGIN,LTG_APT_SCH,G NW APARTMENT,88.25,2.5,256.473,2.906,102.589,0.000,0.600,0.200,0.200,1.000,LightsPlugIn,2.902,46.436
 Lights Internal Gains Nominal, G S1 APARTMENT_LIGHTS_HARDWIRED,LTG_APT_SCH,G S1 APARTMENT,88.25,2.5,1016.394,11.517,406.558,0.000,0.600,0.200,0.200,1.000,LightsWired,11.502,184.025
 Lights Internal Gains Nominal, G S1 APARTMENT_LIGHTS_PLUGIN,LTG_APT_SCH,G S1 APARTMENT,88.25,2.5,256.473,2.906,102.589,0.000,0.600,0.200,0.200,1.000,LightsPlugIn,2.902,46.436
 Lights Internal Gains Nominal, G S2 APARTMENT_LIGHTS_HARDWIRED,LTG_APT_SCH,G S2 APARTMENT,88.25,2.5,1016.394,11.517,406.558,0.000,0.600,0.200,0.200,1.000,LightsWired,11.502,184.025
 Lights Internal Gains Nominal, G S2 APARTMENT_LIGHTS_PLUGIN,LTG_APT_SCH,G S2 APARTMENT,88.25,2.5,256.473,2.906,102.589,0.000,0.600,0.200,0.200,1.000,LightsPlugIn,2.902,46.436
 Lights Internal Gains Nominal, G SW APARTMENT_LIGHTS_HARDWIRED,LTG_APT_SCH,G SW APARTMENT,88.25,2.5,1016.394,11.517,406.558,0.000,0.600,0.200,0.200,1.000,LightsWired,11.502,184.025
 Lights Internal Gains Nominal, G SW APARTMENT_LIGHTS_PLUGIN,LTG_APT_SCH,G SW APARTMENT,88.25,2.5,256.473,2.906,102.589,0.000,0.600,0.200,0.200,1.000,LightsPlugIn,2.902,46.436
 Lights Internal Gains Nominal, M CORRIDOR_LIGHTS_HARDWIRED,LTG_COR_SCH,M CORRIDOR,77.66,0.0,662.040,8.525,N/A,0.000,0.600,0.200,0.200,1.000,LightsWired,381.914,381.914
 Lights Internal Gains Nominal, M N1 APARTMENT_LIGHTS_HARDWIRED,LTG_APT_SCH,M N1 APARTMENT,88.25,2.5,1016.394,11.517,406.558,0.000,0.600,0.200,0.200,1.000,LightsWired,11.502,184.025
 Lights Internal Gains Nominal, M N1 APARTMENT_LIGHTS_PLUGIN,LTG_APT_SCH,M N1 APARTMENT,88.25,2.5,256.473,2.906,102.589,0.000,0.600,0.200,0.200,1.000,LightsPlugIn,2.902,46.436
 Lights Internal Gains Nominal, M N2 APARTMENT_LIGHTS_HARDWIRED,LTG_APT_SCH,M N2 APARTMENT,88.25,2.5,1016.394,11.517,406.558,0.000,0.600,0.200,0.200,1.000,LightsWired,11.502,184.025
 Lights Internal Gains Nominal, M N2 APARTMENT_LIGHTS_PLUGIN,LTG_APT_SCH,M N2 APARTMENT,88.25,2.5,256.473,2.906,102.589,0.000,0.600,0.200,0.200,1.000,LightsPlugIn,2.902,46.436
 Lights Internal Gains Nominal, M NE APARTMENT_LIGHTS_HARDWIRED,LTG_APT_SCH,M NE APARTMENT,88.25,2.5,1016.394,11.517,406.558,0.000,0.600,0.200,0.200,1.000,LightsWired,11.502,184.025
 Lights Internal Gains Nominal, M NE APARTMENT_LIGHTS_PLUGIN,LTG_APT_SCH,M NE APARTMENT,88.25,2.5,256.473,2.906,102.589,0.000,0.600,0.200,0.200,1.000,LightsPlugIn,2.902,46.436
 Lights Internal Gains Nominal, M NW APARTMENT_LIGHTS_HARDWIRED,LTG_APT_SCH,M NW APARTMENT,88.25,2.5,1016.394,11.517,406.558,0.000,0.600,0.200,0.200,1.000,LightsWired,11.502,184.025
 Lights Internal Gains Nominal, M NW APARTMENT_LIGHTS_PLUGIN,LTG_APT_SCH,M NW APARTMENT,88.25,2.5,256.473,2.906,102.589,0.000,0.600,0.200,0.200,1.000,LightsPlugIn,2.902,46.436
 Lights Internal Gains Nominal, M S1 APARTMENT_LIGHTS_HARDWIRED,LTG_APT_SCH,M S1 APARTMENT,88.25,2.5,1016.394,11.517,406.558,0.000,0.600,0.200,0.200,1.000,LightsWired,11.502,184.025
 Lights Internal Gains Nominal, M S1 APARTMENT_LIGHTS_PLUGIN,LTG_APT_SCH,M S1 APARTMENT,88.25,2.5,256.473,2.906,102.589,0.000,0.600,0.200,0.200,1.000,LightsPlugIn,2.902,46.436
 Lights Internal Gains Nominal, M S2 APARTMENT_LIGHTS_HARDWIRED,LTG_APT_SCH,M S2 APARTMENT,88.25,2.5,1016.394,11.517,406.558,0.000,0.600,0.200,0.200,1.000,LightsWired,11.502,184.025
 Lights Internal Gains Nominal, M S2 APARTMENT_LIGHTS_PLUGIN,LTG_APT_SCH,M S2 APARTMENT,88.25,2.5,256.473,2.906,102.589,0.000,0.600,0.200,0.200,1.000,LightsPlugIn,2.902,46.436
 Lights Internal Gains Nominal, M SE APARTMENT_LIGHTS_HARDWIRED,LTG_APT_SCH,M SE APARTMENT,88.25,2.5,1016.394,11.517,406.558,0.000,0.600,0.200,0.200,1.000,LightsWired,11.502,184.025
 Lights Internal Gains Nominal, M SE APARTMENT_LIGHTS_PLUGIN,LTG_APT_SCH,M SE APARTMENT,88.25,2.5,256.473,2.906,102.589,0.000,0.600,0.200,0.200,1.000,LightsPlugIn,2.902,46.436
 Lights Internal Gains Nominal, M SW APARTMENT_LIGHTS_HARDWIRED,LTG_APT_SCH,M SW APARTMENT,88.25,2.5,1016.394,11.517,406.558,0.000,0.600,0.200,0.200,1.000,LightsWired,11.502,184.025
 Lights Internal Gains Nominal, M SW APARTMENT_LIGHTS_PLUGIN,LTG_APT_SCH,M SW APARTMENT,88.25,2.5,256.473,2.906,102.589,0.000,0.600,0.200,0.200,1.000,LightsPlugIn,2.902,46.436
 Lights Internal Gains Nominal, OFFICE_LIGHTS_HARDWIRED,LTG_OFF_SCH,OFFICE,88.25,1.0,1054.390,11.948,1054.390,0.000,0.600,0.200,0.200,1.000,LightsWired,0.000,1054.390
 Lights Internal Gains Nominal, T CORRIDOR_LIGHTS_HARDWIRED,LTG_COR_SCH,T CORRIDOR,77.66,0.0,662.040,8.525,N/A,0.000,0.600,0.200,0.200,1.000,LightsWired,381.914,381.914
 Lights Internal Gains Nominal, T N1 APARTMENT_LIGHTS_HARDWIRED,LTG_APT_SCH,T N1 APARTMENT,88.25,2.5,1016.394,11.517,406.558,0.000,0.600,0.200,0.200,1.000,LightsWired,11.502,184.025
 Lights Internal Gains Nominal, T N1 APARTMENT_LIGHTS_PLUGIN,LTG_APT_SCH,T N1 APARTMENT,88.25,2.5,256.473,2.906,102.589,0.000,0.600,0.200,0.200,1.000,LightsPlugIn,2.902,46.436
 Lights Internal Gains Nominal, T N2 APARTMENT_LIGHTS_HARDWIRED,LTG_APT_SCH,T N2 APARTMENT,88.25,2.5,1016.394,11.517,406.558,0.000,0.600,0.200,0.200,1.000,LightsWired,11.502,184.025
 Lights Internal Gains Nominal, T N2 APARTMENT_LIGHTS_PLUGIN,LTG_APT_SCH,T N2 APARTMENT,88.25,2.5,256.473,2.906,102.589,0.000,0.600,0.200,0.200,1.000,LightsPlugIn,2.902,46.436
 Lights Internal Gains Nominal, T NE APARTMENT_LIGHTS_HARDWIRED,LTG_APT_SCH,T NE APARTMENT,88.25,2.5,1016.394,11.517,406.558,0.000,0.600,0.200,0.200,1.000,LightsWired,11.502,184.025
 Lights Internal Gains Nominal, T NE APARTMENT_LIGHTS_PLUGIN,LTG_APT_SCH,T NE APARTMENT,88.25,2.5,256.473,2.906,102.589,0.000,0.600,0.200,0.200,1.000,LightsPlugIn,2.902,46.436
 Lights Internal Gains Nominal, T NW APARTMENT_LIGHTS_HARDWIRED,LTG_APT_SCH,T NW APARTMENT,88.25,2.5,1016.394,11.517,406.558,0.000,0.600,0.200,0.200,1.000,LightsWired,11.502,184.025
 Lights Internal Gains Nominal, T NW APARTMENT_LIGHTS_PLUGIN,LTG_APT_SCH,T NW APARTMENT,88.25,2.5,256.473,2.906,102.589,0.000,0.600,0.200,0.200,1.000,LightsPlugIn,2.902,46.436
 Lights Internal Gains Nominal, T S1 APARTMENT_LIGHTS_HARDWIRED,LTG_APT_SCH,T S1 APARTMENT,88.25,2.5,1016.394,11.517,406.558,0.000,0.600,0.200,0.200,1.000,LightsWired,11.502,184.025
 Lights Internal Gains Nominal, T S1 APARTMENT_LIGHTS_PLUGIN,LTG_APT_SCH,T S1 APARTMENT,88.25,2.5,256.473,2.906,102.589,0.000,0.600,0.200,0.200,1.000,LightsPlugIn,2.902,46.436
 Lights Internal Gains Nominal, T S2 APARTMENT_LIGHTS_HARDWIRED,LTG_APT_SCH,T S2 APARTMENT,88.25,2.5,1016.394,11.517,406.558,0.000,0.600,0.200,0.200,1.000,LightsWired,11.502,184.025
 Lights Internal Gains Nominal, T S2 APARTMENT_LIGHTS_PLUGIN,LTG_APT_SCH,T S2 APARTMENT,88.25,2.5,256.473,2.906,102.589,0.000,0.600,0.200,0.200,1.000,LightsPlugIn,2.902,46.436
 Lights Internal Gains Nominal, T SE APARTMENT_LIGHTS_HARDWIRED,LTG_APT_SCH,T SE APARTMENT,88.25,2.5,1016.394,11.517,406.558,0.000,0.600,0.200,0.200,1.000,LightsWired,11.502,184.025
 Lights Internal Gains Nominal, T SE APARTMENT_LIGHTS_PLUGIN,LTG_APT_SCH,T SE APARTMENT,88.25,2.5,256.473,2.906,102.589,0.000,0.600,0.200,0.200,1.000,LightsPlugIn,2.902,46.436
 Lights Internal Gains Nominal, T SW APARTMENT_LIGHTS_HARDWIRED,LTG_APT_SCH,T SW APARTMENT,88.25,2.5,1016.394,11.517,406.558,0.000,0.600,0.200,0.200,1.000,LightsWired,11.502,184.025
 Lights Internal Gains Nominal, T SW APARTMENT_LIGHTS_PLUGIN,LTG_APT_SCH,T SW APARTMENT,88.25,2.5,256.473,2.906,102.589,0.000,0.600,0.200,0.200,1.000,LightsPlugIn,2.902,46.436
! <ElectricEquipment Internal Gains Nominal>,Name,Schedule Name,Zone Name,Zone Floor Area {m2},# Zone Occupants,Equipment Level {W},Equipment/Floor Area {W/m2},Equipment per person {W/person},Fraction Latent,Fraction Radiant,Fraction Lost,Fraction Convected,End-Use SubCategory,Nominal Minimum Equipment Level {W},Nominal Maximum Equipment Level {W}
 ElectricEquipment Internal Gains Nominal, ELEVATORS_LIGHTS_FAN,ELEV_LIGHT_FAN_SCH_ADD_DF,T CORRIDOR,77.66,0.0,63.000,0.811,N/A,0.000,0.000,0.950,5.000E-002,ElevatorLightsFan,3.150,31.500
 ElectricEquipment Internal Gains Nominal, F2 N1 APARTMENT_PLUG_MN1_EQUIP,EQP_APT_SCH,F2 N1 APARTMENT,88.25,2.5,588.619,6.670,235.447,0.000,0.500,0.000,0.500,MiscPlug,223.675,588.619
 ElectricEquipment Internal Gains Nominal, F2 N2 APARTMENT_PLUG_MN2_EQUIP,EQP_APT_SCH,F2 N2 APARTMENT,88.25,2.5,588.619,6.670,235.447,0.000,0.500,0.000,0.500,MiscPlug,223.675,588.619
[...]
 Component Sizing Information, AirLoopHVAC:UnitaryHeatPump:WaterToAir, AIRLOOP T SW DXAC HEAT PUMP, Supply Air Flow Rate During Cooling Operation [m3/s], 0.26603
 Component Sizing Information, AirLoopHVAC:UnitaryHeatPump:WaterToAir, AIRLOOP T SW DXAC HEAT PUMP, Supply Air Flow Rate When No Cooling or Heating is Needed [m3/s], 0.26603
 Component Sizing Information, AirLoopHVAC:UnitaryHeatPump:WaterToAir, AIRLOOP T SW DXAC HEAT PUMP, Nominal Heating Capacity [W], 4973.36430
 Component Sizing Information, AirLoopHVAC:UnitaryHeatPump:WaterToAir, AIRLOOP T SW DXAC HEAT PUMP, Nominal Cooling Capacity [W], 4973.36430
 Component Sizing Information, AirLoopHVAC:UnitaryHeatPump:WaterToAir, AIRLOOP T SW DXAC HEAT PUMP, Supplemental Heating Coil Nominal Capacity [W], 3777.37717
 Component Sizing Information, AirLoopHVAC:UnitaryHeatPump:WaterToAir, AIRLOOP T SW DXAC HEAT PUMP, Fraction of Supply Air Flow That Goes Through the Controlling Zone, 1.00000
 Component Sizing Information, Fan:OnOff, AIRLOOP T SW SUPPLY FAN, Design Size Maximum Flow Rate [m3/s], 0.26603
 Component Sizing Information, COIL:HEATING:WATERTOAIRHEATPUMP:EQUATIONFIT, HEAT PUMP HEATING MODE AIRLOOP T SW, Design Size Rated Air Flow Rate [m3/s], 0.26603
 Component Sizing Information, COIL:HEATING:WATERTOAIRHEATPUMP:EQUATIONFIT, HEAT PUMP HEATING MODE AIRLOOP T SW, Design Size Rated Heating Capacity [W], 4973.36430
 Component Sizing Information, COIL:HEATING:WATERTOAIRHEATPUMP:EQUATIONFIT, HEAT PUMP HEATING MODE AIRLOOP T SW, Design Size Rated Water Flow Rate [m3/s], 1.08642E-004
 Component Sizing Information, Coil:Heating:Electric, HEAT PUMP DX SUPP HEATING COIL AIRLOOP T SW, Design Size Nominal Capacity [W], 3777.37717
Water Heater Information,WaterHeater:Mixed,SHWSYS1 WATER HEATER,2.2712,175842.6,0.000,0.0000
 Component Sizing Information, PlantLoop, SHWSYS1, Maximum Loop Flow Rate [m3/s], 2.89140E-004
 Component Sizing Information, PlantLoop, SHWSYS1, Plant Loop Volume [m3], 3.46968E-002
 Component Sizing Information, Pump:ConstantSpeed, SHWSYS1 PUMP, Design Flow Rate [m3/s], 2.89140E-004
 Component Sizing Information, Pump:ConstantSpeed, SHWSYS1 PUMP, Design Power Consumption [W], 36.93455
 Component Sizing Information, WaterHeater:Mixed, SHWSYS1 WATER HEATER, Use Side Design Flow Rate [m3/s], 2.89140E-004
 Component Sizing Information, PlantLoop, SINGLE WATER PLANT LOOP, Maximum Loop Flow Rate [m3/s], 5.80683E-003
 Component Sizing Information, PlantLoop, SINGLE WATER PLANT LOOP, Plant Loop Volume [m3], 0.69682
 Component Sizing Information, Pump:ConstantSpeed, PLANT CIRC PUMP, Design Flow Rate [m3/s], 5.80683E-003
 Component Sizing Information, Pump:ConstantSpeed, PLANT CIRC PUMP, Design Power Consumption [W], 1481.03184
 Component Sizing Information, EvaporativeFluidCooler:SingleSpeed, CENTRAL TOWER, Design Water Flow Rate [m3/s], 5.80683E-003
 Component Sizing Information, EvaporativeFluidCooler:SingleSpeed, CENTRAL TOWER, Fan Power at Design Air Flow Rate [W], 2803.19311
 Component Sizing Information, EvaporativeFluidCooler:SingleSpeed, CENTRAL TOWER, Design Air Flow Rate [m3/s], 7.65216
 Component Sizing Information, EvaporativeFluidCooler:SingleSpeed, CENTRAL TOWER, U-Factor Times Area Value at Design Air Flow Rate [W/C], 8383.76843
 Component Sizing Information, Boiler:HotWater, CENTRAL BOILER, Design Size Nominal Capacity [W], 262826.44961
 Component Sizing Information, Boiler:HotWater, CENTRAL BOILER, User-Specified Nominal Capacity [W], 248758.95000
 Component Sizing Information, Boiler:HotWater, CENTRAL BOILER, Design Size Design Water Flow Rate [m3/s], 5.80683E-003
! <Environment>,Environment Name,Environment Type, Start Date, End Date, Start DayOfWeek, Duration {#days}, Source:Start DayOfWeek,  Use Daylight Saving, Use Holidays, Apply Weekend Holiday Rule,  Use Rain Values, Use Snow Values
! <Environment:Special Days>, Special Day Name, Special Day Type, Source, Start Date, Duration {#days}
! <Environment:Daylight Saving>, Daylight Saving Indicator, Source, Start Date, End Date
! <Environment:WarmupDays>, NumberofWarmupDays
Environment,RUNPERIOD 1,WeatherFileRunPeriod,05/01/2011,05/02/2011,Sunday,2,Use RunPeriod Specified Day,No,No,No,Yes,Yes
Environment:Daylight Saving,Yes,InputFile,03/13,11/06
Environment:Special Days,CHRISTMAS,Holiday,InputFile,12/25,  1
Environment:Special Days,COLUMBUS DAY,Holiday,InputFile,10/10,  1
Environment:Special Days,INDEPENDENCE DAY,Holiday,InputFile,07/04,  1
Environment:Special Days,LABOR DAY,Holiday,InputFile,09/05,  1
Environment:Special Days,MEMORIAL DAY,Holiday,InputFile,05/30,  1
Environment:Special Days,MLK DAY,Holiday,InputFile,01/17,  1
Environment:Special Days,NEW YEARS DAY,Holiday,InputFile,01/01,  1
Environment:Special Days,PRESIDENTS DAY,Holiday,InputFile,02/21,  1
Environment:Special Days,THANKSGIVING,Holiday,InputFile,11/24,  1
Environment:Special Days,VETERANS DAY,Holiday,InputFile,11/11,  1
Environment:WarmupDays,  8
! <Tabular Report>,Style,Unit Conversion
Tabular Report,Commaandhtml,commaandhtml
! <Warmup Convergence Information>,Zone Name,Environment Type/Name,Average Warmup Temperature Difference {deltaC},Std Dev Warmup Temperature Difference {deltaC},Max Temperature Pass/Fail Convergence,Min Temperature Pass/Fail Convergence,Average Warmup Load Difference {W},Std Dev Warmup Load Difference {W},Heating Load Pass/Fail Convergence,Cooling Load Pass/Fail Convergence
 Warmup Convergence Information,F2 CORRIDOR,RunPeriod: RUNPERIOD 1,6.3546437854E-003,4.9540566192E-003,Pass,Pass,0.0000000000,0.0000000000,Pass,Pass
 Warmup Convergence Information,F2 N1 APARTMENT,RunPeriod: RUNPERIOD 1,3.8658857772E-002,9.4357397437E-002,Pass,Pass,2.7821873062E-002,6.9790141601E-002,Pass,Pass
 Warmup Convergence Information,F2 N2 APARTMENT,RunPeriod: RUNPERIOD 1,3.8924913513E-002,9.3861360406E-002,Pass,Pass,2.5202369191E-002,4.8349881456E-002,Pass,Pass
 Warmup Convergence Information,F2 NE APARTMENT,RunPeriod: RUNPERIOD 1,4.0088154910E-002,8.6390011328E-002,Pass,Pass,2.4217701858E-002,4.1561510611E-002,Pass,Pass
 Warmup Convergence Information,F2 NW APARTMENT,RunPeriod: RUNPERIOD 1,4.0976942155E-002,0.1028814012,Pass,Pass,2.4319341199E-002,5.5477167263E-002,Pass,Pass
 Warmup Convergence Information,F2 S1 APARTMENT,RunPeriod: RUNPERIOD 1,3.8771194979E-002,9.6382631492E-002,Pass,Pass,2.3607605237E-002,3.7263268840E-002,Pass,Pass
 Warmup Convergence Information,F2 S2 APARTMENT,RunPeriod: RUNPERIOD 1,3.8908483766E-002,9.6189093453E-002,Pass,Pass,2.4697465732E-002,4.2653221374E-002,Pass,Pass
 Warmup Convergence Information,F2 SE APARTMENT,RunPeriod: RUNPERIOD 1,3.9849942836E-002,8.9585019720E-002,Pass,Pass,2.3172948714E-002,5.2379655023E-002,Pass,Pass
 Warmup Convergence Information,F2 SW APARTMENT,RunPeriod: RUNPERIOD 1,4.0184587658E-002,0.1013879612,Pass,Pass,5.7295392402E-002,0.4315371496,Pass,Pass
 Warmup Convergence Information,F3 CORRIDOR,RunPeriod: RUNPERIOD 1,6.4167972568E-003,5.0908308273E-003,Pass,Pass,0.0000000000,0.0000000000,Pass,Pass
 Warmup Convergence Information,F3 N1 APARTMENT,RunPeriod: RUNPERIOD 1,3.9101283512E-002,9.7451501224E-002,Pass,Pass,2.5810510946E-002,4.7130232325E-002,Pass,Pass
 Warmup Convergence Information,F3 N2 APARTMENT,RunPeriod: RUNPERIOD 1,3.9320363003E-002,9.7177061461E-002,Pass,Pass,2.7991177579E-002,7.2197160376E-002,Pass,Pass
 Warmup Convergence Information,F3 NE APARTMENT,RunPeriod: RUNPERIOD 1,4.0380750682E-002,8.9813172225E-002,Pass,Pass,2.5587245979E-002,5.9069791442E-002,Pass,Pass
 Warmup Convergence Information,F3 NW APARTMENT,RunPeriod: RUNPERIOD 1,3.9536918986E-002,0.1013378390,Pass,Pass,4.5823378643E-002,0.2863420911,Pass,Pass
 Warmup Convergence Information,F3 S1 APARTMENT,RunPeriod: RUNPERIOD 1,3.9387087456E-002,9.9912296417E-002,Pass,Pass,2.3414563287E-002,4.2066996529E-002,Pass,Pass
 Warmup Convergence Information,F3 S2 APARTMENT,RunPeriod: RUNPERIOD 1,3.9532152477E-002,9.9706246081E-002,Pass,Pass,2.3952497639E-002,4.1294319130E-002,Pass,Pass
 Warmup Convergence Information,F3 SE APARTMENT,RunPeriod: RUNPERIOD 1,4.0347190968E-002,9.2615821648E-002,Pass,Pass,2.3051151605E-002,4.6144794988E-002,Pass,Pass
 Warmup Convergence Information,F3 SW APARTMENT,RunPeriod: RUNPERIOD 1,4.0999513883E-002,0.1052060935,Pass,Pass,6.3190362464E-002,0.5030129518,Pass,Pass
 Warmup Convergence Information,F4 CORRIDOR,RunPeriod: RUNPERIOD 1,6.4618262568E-003,5.1646762658E-003,Pass,Pass,0.0000000000,0.0000000000,Pass,Pass
 Warmup Convergence Information,F4 N1 APARTMENT,RunPeriod: RUNPERIOD 1,3.9843823435E-002,9.9338837292E-002,Pass,Pass,2.8649124653E-002,7.3345914804E-002,Pass,Pass
 Warmup Convergence Information,F4 N2 APARTMENT,RunPeriod: RUNPERIOD 1,4.0105418149E-002,9.8916800237E-002,Pass,Pass,2.5686311391E-002,4.9511983767E-002,Pass,Pass
 Warmup Convergence Information,F4 NE APARTMENT,RunPeriod: RUNPERIOD 1,4.1186030448E-002,9.1314681734E-002,Pass,Pass,2.3889190693E-002,3.8293935583E-002,Pass,Pass
 Warmup Convergence Information,F4 NW APARTMENT,RunPeriod: RUNPERIOD 1,4.1308750346E-002,0.1071067599,Pass,Pass,2.5840561949E-002,6.8512458863E-002,Pass,Pass
 Warmup Convergence Information,F4 S1 APARTMENT,RunPeriod: RUNPERIOD 1,4.0147312217E-002,0.1020107864,Pass,Pass,2.4692034508E-002,4.2374554254E-002,Pass,Pass
 Warmup Convergence Information,F4 S2 APARTMENT,RunPeriod: RUNPERIOD 1,4.0317358101E-002,0.1018363186,Pass,Pass,2.7015648755E-002,6.1085321404E-002,Pass,Pass
 Warmup Convergence Information,F4 SE APARTMENT,RunPeriod: RUNPERIOD 1,4.1303424043E-002,9.4284995848E-002,Pass,Pass,2.5980858727E-002,6.1986078147E-002,Pass,Pass
 Warmup Convergence Information,F4 SW APARTMENT,RunPeriod: RUNPERIOD 1,4.1228225283E-002,0.1059375277,Pass,Pass,3.7721078662E-002,0.1968519275,Pass,Pass
 Warmup Convergence Information,F6 CORRIDOR,RunPeriod: RUNPERIOD 1,6.5643033661E-003,5.3041384120E-003,Pass,Pass,0.0000000000,0.0000000000,Pass,Pass
 Warmup Convergence Information,F6 N1 APARTMENT,RunPeriod: RUNPERIOD 1,4.1677409166E-002,0.1010107335,Pass,Pass,2.8694266357E-002,6.2701928955E-002,Pass,Pass
 Warmup Convergence Information,F6 N2 APARTMENT,RunPeriod: RUNPERIOD 1,4.1926628271E-002,0.1006989717,Pass,Pass,2.7126409827E-002,5.4148506427E-002,Pass,Pass
 Warmup Convergence Information,F6 NE APARTMENT,RunPeriod: RUNPERIOD 1,4.2959901857E-002,9.2211420011E-002,Pass,Pass,2.2168557645E-002,3.0494356061E-002,Pass,Pass
 Warmup Convergence Information,F6 NW APARTMENT,RunPeriod: RUNPERIOD 1,4.5196473674E-002,0.1047444520,Pass,Pass,2.5119721321E-002,4.3348936812E-002,Pass,Pass
 Warmup Convergence Information,F6 S1 APARTMENT,RunPeriod: RUNPERIOD 1,4.2047747876E-002,0.1041252070,Pass,Pass,2.5634494647E-002,4.5314204227E-002,Pass,Pass
 Warmup Convergence Information,F6 S2 APARTMENT,RunPeriod: RUNPERIOD 1,4.2332322779E-002,0.1038640719,Pass,Pass,2.7617401091E-002,5.5072740064E-002,Pass,Pass
 Warmup Convergence Information,F6 SE APARTMENT,RunPeriod: RUNPERIOD 1,4.3299254171E-002,9.5481660306E-002,Pass,Pass,2.3885299784E-002,3.8586934788E-002,Pass,Pass
 Warmup Convergence Information,F6 SW APARTMENT,RunPeriod: RUNPERIOD 1,4.5490853851E-002,0.1071741237,Pass,Pass,2.7401356550E-002,8.0475226878E-002,Pass,Pass
 Warmup Convergence Information,F7 CORRIDOR,RunPeriod: RUNPERIOD 1,6.6020973949E-003,5.3992421545E-003,Pass,Pass,0.0000000000,0.0000000000,Pass,Pass
 Warmup Convergence Information,F7 N1 APARTMENT,RunPeriod: RUNPERIOD 1,4.2578954496E-002,0.1019011058,Pass,Pass,2.6793976608E-002,4.6436254709E-002,Pass,Pass
 Warmup Convergence Information,F7 N2 APARTMENT,RunPeriod: RUNPERIOD 1,4.2818758389E-002,0.1015801457,Pass,Pass,2.8401994981E-002,5.0046010138E-002,Pass,Pass
 Warmup Convergence Information,F7 NE APARTMENT,RunPeriod: RUNPERIOD 1,4.3328111354E-002,9.2917158492E-002,Pass,Pass,2.2706475175E-002,3.1824029656E-002,Pass,Pass
 Warmup Convergence Information,F7 NW APARTMENT,RunPeriod: RUNPERIOD 1,4.6224388573E-002,0.1102519867,Pass,Pass,2.5557974518E-002,4.3199035684E-002,Pass,Pass
 Warmup Convergence Information,F7 S1 APARTMENT,RunPeriod: RUNPERIOD 1,4.2973648908E-002,0.1053371334,Pass,Pass,2.9131766735E-002,6.9521592926E-002,Pass,Pass
 Warmup Convergence Information,F7 S2 APARTMENT,RunPeriod: RUNPERIOD 1,4.3252031177E-002,0.1049679773,Pass,Pass,2.6792049178E-002,4.9499607112E-002,Pass,Pass
 Warmup Convergence Information,F7 SE APARTMENT,RunPeriod: RUNPERIOD 1,4.4091963932E-002,9.6257566225E-002,Pass,Pass,2.1927621442E-002,3.0794242417E-002,Pass,Pass
 Warmup Convergence Information,F7 SW APARTMENT,RunPeriod: RUNPERIOD 1,4.7111151805E-002,0.1087653397,Pass,Pass,2.4565955112E-002,4.2135177646E-002,Pass,Pass
 Warmup Convergence Information,F8 CORRIDOR,RunPeriod: RUNPERIOD 1,6.5885460599E-003,5.4928017915E-003,Pass,Pass,0.0000000000,0.0000000000,Pass,Pass
 Warmup Convergence Information,F8 N1 APARTMENT,RunPeriod: RUNPERIOD 1,4.3422344243E-002,0.1027899818,Pass,Pass,3.0338913534E-002,6.6705481079E-002,Pass,Pass
 Warmup Convergence Information,F8 N2 APARTMENT,RunPeriod: RUNPERIOD 1,4.3619445790E-002,0.1023686932,Pass,Pass,2.7187514652E-002,4.2623990689E-002,Pass,Pass
 Warmup Convergence Information,F8 NE APARTMENT,RunPeriod: RUNPERIOD 1,4.3658437282E-002,9.3609820206E-002,Pass,Pass,2.3629737911E-002,3.3342197268E-002,Pass,Pass
 Warmup Convergence Information,F8 NW APARTMENT,RunPeriod: RUNPERIOD 1,4.7319193833E-002,0.1083395772,Pass,Pass,2.5160107887E-002,4.9445529001E-002,Pass,Pass
 Warmup Convergence Information,F8 S1 APARTMENT,RunPeriod: RUNPERIOD 1,4.3850066508E-002,0.1063390442,Pass,Pass,2.6744615685E-002,4.3206176444E-002,Pass,Pass
 Warmup Convergence Information,F8 S2 APARTMENT,RunPeriod: RUNPERIOD 1,4.4090422512E-002,0.1060115140,Pass,Pass,2.9337856715E-002,5.6935241573E-002,Pass,Pass
 Warmup Convergence Information,F8 SE APARTMENT,RunPeriod: RUNPERIOD 1,4.4416139512E-002,9.7124791041E-002,Pass,Pass,2.2823396637E-002,3.2277307266E-002,Pass,Pass
 Warmup Convergence Information,F8 SW APARTMENT,RunPeriod: RUNPERIOD 1,4.8065720346E-002,0.1144815982,Pass,Pass,2.7031990331E-002,5.8700837969E-002,Pass,Pass
 Warmup Convergence Information,F9 CORRIDOR,RunPeriod: RUNPERIOD 1,7.0551959780E-003,5.7133214355E-003,Pass,Pass,0.0000000000,0.0000000000,Pass,Pass
 Warmup Convergence Information,F9 N1 APARTMENT,RunPeriod: RUNPERIOD 1,4.3598442777E-002,0.1037076743,Pass,Pass,2.9629325928E-002,4.9249426733E-002,Pass,Pass
 Warmup Convergence Information,F9 N2 APARTMENT,RunPeriod: RUNPERIOD 1,4.3767118756E-002,0.1033734900,Pass,Pass,3.0974043735E-002,5.9211021560E-002,Pass,Pass
 Warmup Convergence Information,F9 NE APARTMENT,RunPeriod: RUNPERIOD 1,4.4086148916E-002,9.4281851425E-002,Pass,Pass,2.4511036614E-002,3.4868639699E-002,Pass,Pass
 Warmup Convergence Information,F9 NW APARTMENT,RunPeriod: RUNPERIOD 1,4.5211880121E-002,9.7426818930E-002,Pass,Pass,2.5194645462E-002,4.4176937675E-002,Pass,Pass
 Warmup Convergence Information,F9 S1 APARTMENT,RunPeriod: RUNPERIOD 1,4.4036399970E-002,0.1074573987,Pass,Pass,2.8340225720E-002,5.3394286679E-002,Pass,Pass
 Warmup Convergence Information,F9 S2 APARTMENT,RunPeriod: RUNPERIOD 1,4.4210448669E-002,0.1071170789,Pass,Pass,2.8111401437E-002,4.3879172619E-002,Pass,Pass
 Warmup Convergence Information,F9 SE APARTMENT,RunPeriod: RUNPERIOD 1,4.4848874707E-002,9.7946501744E-002,Pass,Pass,2.3623759206E-002,3.3607330040E-002,Pass,Pass
 Warmup Convergence Information,F9 SW APARTMENT,RunPeriod: RUNPERIOD 1,4.5455817966E-002,0.1009985975,Pass,Pass,2.4120675982E-002,4.8508107791E-002,Pass,Pass
 Warmup Convergence Information,G CORRIDOR,RunPeriod: RUNPERIOD 1,5.3069157977E-002,0.1773521399,Pass,Pass,0.0000000000,0.0000000000,Pass,Pass
 Warmup Convergence Information,G N1 APARTMENT,RunPeriod: RUNPERIOD 1,4.2451431046E-002,9.1427134187E-002,Pass,Pass,2.6692549043E-002,4.1763643827E-002,Pass,Pass
 Warmup Convergence Information,G N2 APARTMENT,RunPeriod: RUNPERIOD 1,4.2584628167E-002,9.0956132808E-002,Pass,Pass,2.5395518102E-002,3.5079132588E-002,Pass,Pass
 Warmup Convergence Information,G NE APARTMENT,RunPeriod: RUNPERIOD 1,4.2018174768E-002,8.2913803995E-002,Pass,Pass,2.4765328361E-002,3.4993601279E-002,Pass,Pass
 Warmup Convergence Information,G NW APARTMENT,RunPeriod: RUNPERIOD 1,4.4357607507E-002,8.6094104178E-002,Pass,Pass,2.2142804381E-002,3.4393997366E-002,Pass,Pass
 Warmup Convergence Information,G S1 APARTMENT,RunPeriod: RUNPERIOD 1,4.2336768861E-002,9.3653396613E-002,Pass,Pass,2.5123108286E-002,4.4259527474E-002,Pass,Pass
 Warmup Convergence Information,G S2 APARTMENT,RunPeriod: RUNPERIOD 1,4.2365183656E-002,9.3675626318E-002,Pass,Pass,2.4968102564E-002,4.0647076903E-002,Pass,Pass
 Warmup Convergence Information,G SW APARTMENT,RunPeriod: RUNPERIOD 1,4.5780101447E-002,9.2162820440E-002,Pass,Pass,2.2404653084E-002,3.6176679221E-002,Pass,Pass
 Warmup Convergence Information,M CORRIDOR,RunPeriod: RUNPERIOD 1,6.5112041985E-003,5.2569656569E-003,Pass,Pass,0.0000000000,0.0000000000,Pass,Pass
 Warmup Convergence Information,M N1 APARTMENT,RunPeriod: RUNPERIOD 1,4.0698337955E-002,0.1005214735,Pass,Pass,2.5636679931E-002,4.6142804374E-002,Pass,Pass
 Warmup Convergence Information,M N2 APARTMENT,RunPeriod: RUNPERIOD 1,4.0957465022E-002,0.1002293085,Pass,Pass,2.7568396393E-002,5.3034179504E-002,Pass,Pass
 Warmup Convergence Information,M NE APARTMENT,RunPeriod: RUNPERIOD 1,4.2061625136E-002,9.2261627409E-002,Pass,Pass,2.3365300197E-002,3.3496733793E-002,Pass,Pass
 Warmup Convergence Information,M NW APARTMENT,RunPeriod: RUNPERIOD 1,4.3608572084E-002,0.1038827200,Pass,Pass,2.7687803409E-002,7.9420237515E-002,Pass,Pass
 Warmup Convergence Information,M S1 APARTMENT,RunPeriod: RUNPERIOD 1,4.0976021838E-002,0.1036551155,Pass,Pass,2.8749420855E-002,7.6471001103E-002,Pass,Pass
 Warmup Convergence Information,M S2 APARTMENT,RunPeriod: RUNPERIOD 1,4.1252966060E-002,0.1033007144,Pass,Pass,2.5484073583E-002,4.9062124941E-002,Pass,Pass
 Warmup Convergence Information,M SE APARTMENT,RunPeriod: RUNPERIOD 1,4.2291725299E-002,9.5372352766E-002,Pass,Pass,2.4365687455E-002,4.2163252003E-002,Pass,Pass
 Warmup Convergence Information,M SW APARTMENT,RunPeriod: RUNPERIOD 1,4.2989978866E-002,0.1108883758,Pass,Pass,2.5539070871E-002,6.9060365700E-002,Pass,Pass
 Warmup Convergence Information,OFFICE,RunPeriod: RUNPERIOD 1,1.3872441986E-002,9.3857302644E-003,Pass,Pass,0.1590824656,1.3656748240,Pass,Pass
 Warmup Convergence Information,T CORRIDOR,RunPeriod: RUNPERIOD 1,2.7446455516E-002,2.6604681022E-002,Pass,Pass,0.0000000000,0.0000000000,Pass,Pass
 Warmup Convergence Information,T N1 APARTMENT,RunPeriod: RUNPERIOD 1,5.0468490638E-002,0.1114184667,Pass,Pass,3.2437326180E-002,9.1978057043E-002,Pass,Pass
 Warmup Convergence Information,T N2 APARTMENT,RunPeriod: RUNPERIOD 1,5.0029795634E-002,0.1104962225,Pass,Pass,3.4422446353E-002,9.9814509055E-002,Pass,Pass
 Warmup Convergence Information,T NE APARTMENT,RunPeriod: RUNPERIOD 1,5.3465324493E-002,0.1133541455,Pass,Pass,2.5470507326E-002,4.6332508911E-002,Pass,Pass
 Warmup Convergence Information,T NW APARTMENT,RunPeriod: RUNPERIOD 1,5.6914067606E-002,0.1126267298,Pass,Pass,3.0803379913E-002,9.9076818481E-002,Pass,Pass
 Warmup Convergence Information,T S1 APARTMENT,RunPeriod: RUNPERIOD 1,5.2789872964E-002,0.1163539776,Pass,Pass,3.1291440066E-002,8.1393913046E-002,Pass,Pass
 Warmup Convergence Information,T S2 APARTMENT,RunPeriod: RUNPERIOD 1,5.2291252549E-002,0.1156641326,Pass,Pass,3.1382174439E-002,9.2369267384E-002,Pass,Pass
 Warmup Convergence Information,T SE APARTMENT,RunPeriod: RUNPERIOD 1,5.2871655330E-002,0.1047647764,Pass,Pass,2.5406398362E-002,5.0768211947E-002,Pass,Pass
 Warmup Convergence Information,T SW APARTMENT,RunPeriod: RUNPERIOD 1,5.9021265153E-002,0.1165100601,Pass,Pass,4.0161928737E-002,0.2122269052,Pass,Pass
! <Program Control Information:Threads/Parallel Sims>, Threading Supported,Maximum Number of Threads, Env Set Threads (OMP_NUM_THREADS), EP Env Set Threads (EP_OMP_NUM_THREADS), IDF Set Threads, Number of Threads Used (Interior Radiant Exchange), Number Nominal Surfaces, Number Parallel Sims
Program Control:Threads/Parallel Sims, No,1, N/A, N/A, N/A, N/A, N/A, N/A
End of Data
